
#======================================================================
# CRYSTAL DATA
#----------------------------------------------------------------------
data_VESTA_phase_1

_chemical_name_common                  'Sm12 Co42'
_cell_length_a                         5.000394
_cell_length_b                         5.000394
_cell_length_c                         36.475285
_cell_angle_alpha                      90.000000
_cell_angle_beta                       90.000000
_cell_angle_gamma                      120.000000
_cell_volume                           789.837498
_space_group_name_H-M_alt              'P 1'
_space_group_IT_number                 1

loop_
_space_group_symop_operation_xyz
   'x, y, z'

loop_
   _atom_site_label
   _atom_site_occupancy
   _atom_site_fract_x
   _atom_site_fract_y
   _atom_site_fract_z
   _atom_site_adp_type
   _atom_site_U_iso_or_equiv
   _atom_site_type_symbol
   Sm1        1.0     0.000000     0.000000     0.948350    Uiso  ? Sm
   Sm2        1.0     0.333333     0.666667     0.717878    Uiso  ? Sm
   Sm3        1.0     0.666667     0.333333     0.282383    Uiso  ? Sm
   Sm4        1.0     0.000000     0.000000     0.050951    Uiso  ? Sm
   Sm5        1.0     0.333333     0.666667     0.615455    Uiso  ? Sm
   Sm6        1.0     0.666667     0.333333     0.384983    Uiso  ? Sm
   Sm7        1.0     0.000000     0.000000     0.851599    Uiso  ? Sm
   Sm8        1.0     0.333333     0.666667     0.814464    Uiso  ? Sm
   Sm9        1.0     0.666667     0.333333     0.185629    Uiso  ? Sm
   Sm10       1.0     0.000000     0.000000     0.147704    Uiso  ? Sm
   Sm11       1.0     0.333333     0.666667     0.518869    Uiso  ? Sm
   Sm12       1.0     0.666667     0.333333     0.481734    Uiso  ? Sm
   Co1        1.0     0.666667     0.333333     0.833089    Uiso  ? Co
   Co2        1.0     0.000000     0.000000     0.500244    Uiso  ? Co
   Co3        1.0     0.000000     0.000000     0.721088    Uiso  ? Co
   Co4        1.0     0.333333     0.666667     0.945233    Uiso  ? Co
   Co5        1.0     0.666667     0.333333     0.054451    Uiso  ? Co
   Co6        1.0     0.000000     0.000000     0.278882    Uiso  ? Co
   Co7        1.0     0.333333     0.666667     0.388100    Uiso  ? Co
   Co8        1.0     0.666667     0.333333     0.612245    Uiso  ? Co
   Co9        1.0     0.666667     0.333333     0.945065    Uiso  ? Co
   Co10       1.0     0.666667     0.333333     0.720923    Uiso  ? Co
   Co11       1.0     0.333333     0.666667     0.280189    Uiso  ? Co
   Co12       1.0     0.333333     0.666667     0.053144    Uiso  ? Co
   Co13       1.0     0.000000     0.000000     0.612410    Uiso  ? Co
   Co14       1.0     0.000000     0.000000     0.388268    Uiso  ? Co
   Co15       1.0     0.500460     0.000920     0.999501    Uiso  ? Co
   Co16       1.0     0.500460     0.499540     0.999501    Uiso  ? Co
   Co17       1.0     0.999080     0.499540     0.999501    Uiso  ? Co
   Co18       1.0     0.166207     0.332414     0.333832    Uiso  ? Co
   Co19       1.0     0.166207     0.833793     0.333832    Uiso  ? Co
   Co20       1.0     0.667586     0.833793     0.333832    Uiso  ? Co
   Co21       1.0     0.833333     0.666667     0.666667    Uiso  ? Co
   Co22       1.0     0.833333     0.166667     0.666667    Uiso  ? Co
   Co23       1.0     0.333333     0.166667     0.666667    Uiso  ? Co
   Co24       1.0     0.998178     0.499089     0.891550    Uiso  ? Co
   Co25       1.0     0.500911     0.001822     0.891550    Uiso  ? Co
   Co26       1.0     0.500911     0.499089     0.891550    Uiso  ? Co
   Co27       1.0     0.335490     0.167745     0.774584    Uiso  ? Co
   Co28       1.0     0.832255     0.664510     0.774584    Uiso  ? Co
   Co29       1.0     0.832255     0.167745     0.774584    Uiso  ? Co
   Co30       1.0     0.662507     0.831253     0.226081    Uiso  ? Co
   Co31       1.0     0.168747     0.337493     0.226081    Uiso  ? Co
   Co32       1.0     0.168747     0.831253     0.226081    Uiso  ? Co
   Co33       1.0     0.004160     0.502080     0.107253    Uiso  ? Co
   Co34       1.0     0.497920     0.995840     0.107253    Uiso  ? Co
   Co35       1.0     0.497920     0.502080     0.107253    Uiso  ? Co
   Co36       1.0     0.331177     0.165588     0.558749    Uiso  ? Co
   Co37       1.0     0.834412     0.668823     0.558749    Uiso  ? Co
   Co38       1.0     0.834412     0.165588     0.558749    Uiso  ? Co
   Co39       1.0     0.668489     0.834244     0.441783    Uiso  ? Co
   Co40       1.0     0.165756     0.331511     0.441783    Uiso  ? Co
   Co41       1.0     0.165756     0.834244     0.441783    Uiso  ? Co
   Ni1        1.0     0.333333     0.666667     0.166667    Uiso  ? Ni
