
#======================================================================
# CRYSTAL DATA
#----------------------------------------------------------------------
data_VESTA_phase_1

_chemical_name_common                  'Sm12 Co42                             '
_cell_length_a                         5.069887
_cell_length_b                         5.015268
_cell_length_c                         36.205498
_cell_angle_alpha                      89.784225
_cell_angle_beta                       90.017044
_cell_angle_gamma                      120.743103
_cell_volume                           791.211764
_space_group_name_H-M_alt              'P 1'
_space_group_IT_number                 1

loop_
_space_group_symop_operation_xyz
   'x, y, z'

loop_
   _atom_site_label
   _atom_site_occupancy
   _atom_site_fract_x
   _atom_site_fract_y
   _atom_site_fract_z
   _atom_site_adp_type
   _atom_site_U_iso_or_equiv
   _atom_site_type_symbol
   Sm1        1.0     0.992485     0.000236     0.948558    Uiso  ? Sm
   Sm2        1.0     0.343143     0.662558     0.718114    Uiso  ? Sm
   Sm3        1.0     0.666103     0.337923     0.281971    Uiso  ? Sm
   Sm4        1.0     0.992496     0.997001     0.051324    Uiso  ? Sm
   Sm5        1.0     0.343554     0.667169     0.615342    Uiso  ? Sm
   Sm6        1.0     0.664796     0.334951     0.384599    Uiso  ? Sm
   Sm7        1.0     0.999737     0.998254     0.852147    Uiso  ? Sm
   Sm8        1.0     0.336439     0.664055     0.814428    Uiso  ? Sm
   Sm9        1.0     0.653891     0.332997     0.185438    Uiso  ? Sm
   Sm10       1.0     0.987200     0.000437     0.147912    Uiso  ? Sm
   Sm11       1.0     0.344047     0.670397     0.518431    Uiso  ? Sm
   Sm12       1.0     0.674756     0.337581     0.480993    Uiso  ? Sm
   Co1        1.0     0.668188     0.331165     0.833338    Uiso  ? Co
   Co2        1.0     0.312221     0.666525     0.166650    Uiso  ? Co
   Co3        1.0     0.014579     0.006814     0.499921    Uiso  ? Co
   Co4        1.0     0.020483     0.977530     0.721469    Uiso  ? Co
   Co5        1.0     0.317507     0.684697     0.945252    Uiso  ? Co
   Co6        1.0     0.653153     0.324799     0.054496    Uiso  ? Co
   Co7        1.0     0.993197     0.010218     0.278684    Uiso  ? Co
   Co8        1.0     0.307416     0.650765     0.387962    Uiso  ? Co
   Co9        1.0     0.688523     0.334155     0.612410    Uiso  ? Co
   Co10       1.0     0.665705     0.315636     0.945669    Uiso  ? Co
   Co11       1.0     0.667429     0.346865     0.720993    Uiso  ? Co
   Co12       1.0     0.337781     0.665749     0.279165    Uiso  ? Co
   Co13       1.0     0.330874     0.668938     0.054156    Uiso  ? Co
   Co14       1.0     0.000021     0.000395     0.612370    Uiso  ? Co
   Co15       1.0     0.020610     0.019365     0.387533    Uiso  ? Co
   Co16       1.0     0.492988     0.997874     0.000421    Uiso  ? Co
   Co17       1.0     0.492881     0.498444     0.998878    Uiso  ? Co
   Co18       1.0     0.992948     0.498361     0.000435    Uiso  ? Co
   Co19       1.0     0.167051     0.337006     0.332817    Uiso  ? Co
   Co20       1.0     0.166497     0.836542     0.332682    Uiso  ? Co
   Co21       1.0     0.667111     0.836544     0.334469    Uiso  ? Co
   Co22       1.0     0.841932     0.666097     0.666234    Uiso  ? Co
   Co23       1.0     0.841936     0.165407     0.668387    Uiso  ? Co
   Co24       1.0     0.341061     0.164761     0.666171    Uiso  ? Co
   Co25       1.0     0.989734     0.499574     0.891513    Uiso  ? Co
   Co26       1.0     0.497445     0.007184     0.890681    Uiso  ? Co
   Co27       1.0     0.346389     0.162854     0.775269    Uiso  ? Co
   Co28       1.0     0.838650     0.655278     0.775973    Uiso  ? Co
   Co29       1.0     0.163657     0.344182     0.224702    Uiso  ? Co
   Co30       1.0     0.164807     0.833939     0.226073    Uiso  ? Co
   Co31       1.0     0.995763     0.499417     0.107661    Uiso  ? Co
   Co32       1.0     0.486367     0.990791     0.108625    Uiso  ? Co
   Co33       1.0     0.342330     0.168202     0.559009    Uiso  ? Co
   Co34       1.0     0.845567     0.670392     0.558178    Uiso  ? Co
   Co35       1.0     0.845958     0.168967     0.558131    Uiso  ? Co
   Co36       1.0     0.163495     0.326440     0.442443    Uiso  ? Co
   Co37       1.0     0.163240     0.836520     0.441361    Uiso  ? Co
   Ni1        1.0     0.662385     0.831318     0.441121    Uiso  ? Ni
   Ni2        1.0     0.493716     0.503567     0.892273    Uiso  ? Ni
   Ni3        1.0     0.491637     0.495094     0.108778    Uiso  ? Ni
   Ni4        1.0     0.842377     0.158946     0.774294    Uiso  ? Ni
   Ni5        1.0     0.665743     0.839124     0.224096    Uiso  ? Ni
