
#======================================================================
# CRYSTAL DATA
#----------------------------------------------------------------------
data_VESTA_phase_1

_chemical_name_common                  'Sm12 Co42                             '
_cell_length_a                         5.060678
_cell_length_b                         5.026917
_cell_length_c                         36.218338
_cell_angle_alpha                      89.777847
_cell_angle_beta                       90.124306
_cell_angle_gamma                      120.940445
_cell_volume                           790.263964
_space_group_name_H-M_alt              'P 1'
_space_group_IT_number                 1

loop_
_space_group_symop_operation_xyz
   'x, y, z'

loop_
   _atom_site_label
   _atom_site_occupancy
   _atom_site_fract_x
   _atom_site_fract_y
   _atom_site_fract_z
   _atom_site_adp_type
   _atom_site_U_iso_or_equiv
   _atom_site_type_symbol
   Sm1        1.0     0.997589     0.002835     0.948466    Uiso  ? Sm
   Sm2        1.0     0.342716     0.662291     0.718357    Uiso  ? Sm
   Sm3        1.0     0.660057     0.335491     0.281776    Uiso  ? Sm
   Sm4        1.0     0.998734     0.000681     0.051048    Uiso  ? Sm
   Sm5        1.0     0.341594     0.666286     0.615622    Uiso  ? Sm
   Sm6        1.0     0.657800     0.331627     0.384529    Uiso  ? Sm
   Sm7        1.0     0.002269     0.998389     0.852128    Uiso  ? Sm
   Sm8        1.0     0.337409     0.664775     0.814615    Uiso  ? Sm
   Sm9        1.0     0.660571     0.336366     0.184833    Uiso  ? Sm
   Sm10       1.0     0.995137     0.003617     0.147412    Uiso  ? Sm
   Sm11       1.0     0.340108     0.667934     0.518577    Uiso  ? Sm
   Sm12       1.0     0.670064     0.335295     0.481061    Uiso  ? Sm
   Co1        1.0     0.670080     0.331209     0.833385    Uiso  ? Co
   Co2        1.0     0.325749     0.672352     0.166214    Uiso  ? Co
   Co3        1.0     0.010229     0.004678     0.500080    Uiso  ? Co
   Co4        1.0     0.022113     0.977661     0.721716    Uiso  ? Co
   Co5        1.0     0.334384     0.672738     0.945315    Uiso  ? Co
   Co6        1.0     0.676676     0.317579     0.054309    Uiso  ? Co
   Co7        1.0     0.977581     0.009066     0.278649    Uiso  ? Co
   Co8        1.0     0.300701     0.648820     0.387950    Uiso  ? Co
   Co9        1.0     0.683246     0.331360     0.612735    Uiso  ? Co
   Co10       1.0     0.661213     0.332733     0.945672    Uiso  ? Co
   Co11       1.0     0.664508     0.346035     0.721189    Uiso  ? Co
   Co12       1.0     0.341435     0.662461     0.278803    Uiso  ? Co
   Co13       1.0     0.321860     0.683475     0.054034    Uiso  ? Co
   Co14       1.0     0.001357     0.001445     0.612585    Uiso  ? Co
   Co15       1.0     0.012806     0.014261     0.387513    Uiso  ? Co
   Co16       1.0     0.497866     0.002676     0.999262    Uiso  ? Co
   Co17       1.0     0.496807     0.502736     0.000913    Uiso  ? Co
   Co18       1.0     0.997011     0.501877     0.999228    Uiso  ? Co
   Co19       1.0     0.160975     0.334462     0.332983    Uiso  ? Co
   Co20       1.0     0.160629     0.833070     0.332310    Uiso  ? Co
   Co21       1.0     0.661323     0.834049     0.334696    Uiso  ? Co
   Co22       1.0     0.841393     0.666225     0.666468    Uiso  ? Co
   Co23       1.0     0.841063     0.164991     0.668675    Uiso  ? Co
   Co24       1.0     0.340347     0.164697     0.666456    Uiso  ? Co
   Co25       1.0     0.993946     0.500228     0.891900    Uiso  ? Co
   Co26       1.0     0.501135     0.007704     0.891464    Uiso  ? Co
   Co27       1.0     0.347379     0.163585     0.775618    Uiso  ? Co
   Co28       1.0     0.839263     0.655557     0.776054    Uiso  ? Co
   Co29       1.0     0.657409     0.835795     0.224176    Uiso  ? Co
   Co30       1.0     0.160200     0.338956     0.224432    Uiso  ? Co
   Co31       1.0     0.160387     0.835783     0.226052    Uiso  ? Co
   Co32       1.0     0.003767     0.502282     0.108242    Uiso  ? Co
   Co33       1.0     0.495549     0.994079     0.108676    Uiso  ? Co
   Co34       1.0     0.339017     0.166263     0.559091    Uiso  ? Co
   Co35       1.0     0.842211     0.668685     0.558551    Uiso  ? Co
   Co36       1.0     0.842226     0.167175     0.558544    Uiso  ? Co
   Co37       1.0     0.158113     0.323714     0.442336    Uiso  ? Co
   Co38       1.0     0.157457     0.834606     0.441373    Uiso  ? Co
   Ni1        1.0     0.656134     0.828330     0.441263    Uiso  ? Ni
   Ni2        1.0     0.497346     0.503633     0.891239    Uiso  ? Ni
   Ni3        1.0     0.500010     0.498255     0.107100    Uiso  ? Ni
   Ni4        1.0     0.843052     0.159126     0.774322    Uiso  ? Ni
