
#======================================================================
# CRYSTAL DATA
#----------------------------------------------------------------------
data_VESTA_phase_1

_chemical_name_common                  'Sm12 Co42                             '
_cell_length_a                         5.060596
_cell_length_b                         5.010393
_cell_length_c                         36.180992
_cell_angle_alpha                      89.880600
_cell_angle_beta                       89.954887
_cell_angle_gamma                      120.583794
_cell_volume                           789.764471
_space_group_name_H-M_alt              'P 1'
_space_group_IT_number                 1

loop_
_space_group_symop_operation_xyz
   'x, y, z'

loop_
   _atom_site_label
   _atom_site_occupancy
   _atom_site_fract_x
   _atom_site_fract_y
   _atom_site_fract_z
   _atom_site_adp_type
   _atom_site_U_iso_or_equiv
   _atom_site_type_symbol
   Sm1        1.0     0.992021     0.999344     0.948539    Uiso  ? Sm
   Sm2        1.0     0.346565     0.659644     0.717986    Uiso  ? Sm
   Sm3        1.0     0.663140     0.340174     0.282065    Uiso  ? Sm
   Sm4        1.0     0.991040     0.996891     0.051298    Uiso  ? Sm
   Sm5        1.0     0.348143     0.663559     0.615402    Uiso  ? Sm
   Sm6        1.0     0.661547     0.338111     0.384805    Uiso  ? Sm
   Sm7        1.0     0.000848     0.996371     0.852104    Uiso  ? Sm
   Sm8        1.0     0.337810     0.662152     0.814391    Uiso  ? Sm
   Sm9        1.0     0.651972     0.334671     0.185500    Uiso  ? Sm
   Sm10       1.0     0.985281     0.001840     0.147919    Uiso  ? Sm
   Sm11       1.0     0.343455     0.672256     0.519183    Uiso  ? Sm
   Sm12       1.0     0.673389     0.340870     0.481273    Uiso  ? Sm
   Co1        1.0     0.669528     0.329234     0.833264    Uiso  ? Co
   Co2        1.0     0.310415     0.668318     0.166711    Uiso  ? Co
   Co3        1.0     0.010146     0.013398     0.499700    Uiso  ? Co
   Co4        1.0     0.024013     0.977459     0.721248    Uiso  ? Co
   Co5        1.0     0.317666     0.681096     0.945209    Uiso  ? Co
   Co6        1.0     0.652675     0.325725     0.054535    Uiso  ? Co
   Co7        1.0     0.993899     0.012756     0.278784    Uiso  ? Co
   Co8        1.0     0.309035     0.657962     0.388200    Uiso  ? Co
   Co9        1.0     0.693049     0.326953     0.612310    Uiso  ? Co
   Co10       1.0     0.665293     0.317359     0.945675    Uiso  ? Co
   Co11       1.0     0.669544     0.342068     0.720941    Uiso  ? Co
   Co12       1.0     0.331533     0.667372     0.279198    Uiso  ? Co
   Co13       1.0     0.328688     0.668085     0.054156    Uiso  ? Co
   Co14       1.0     0.003082    -0.000350     0.612734    Uiso  ? Co
   Co15       1.0     0.013199     0.018999     0.387627    Uiso  ? Co
   Co16       1.0     0.491941     0.997515     0.000335    Uiso  ? Co
   Co17       1.0     0.491904     0.498042     0.998952    Uiso  ? Co
   Co18       1.0     0.991860     0.497817     0.000378    Uiso  ? Co
   Co19       1.0     0.163356     0.339565     0.333120    Uiso  ? Co
   Co20       1.0     0.163143     0.839303     0.332928    Uiso  ? Co
   Co21       1.0     0.662785     0.839004     0.334298    Uiso  ? Co
   Co22       1.0     0.846964     0.661941     0.665951    Uiso  ? Co
   Co23       1.0     0.846350     0.162501     0.667979    Uiso  ? Co
   Co24       1.0     0.346445     0.161290     0.665764    Uiso  ? Co
   Co25       1.0     0.989796     0.497734     0.891457    Uiso  ? Co
   Co26       1.0     0.497767     0.005268     0.890863    Uiso  ? Co
   Co27       1.0     0.348366     0.160613     0.775163    Uiso  ? Co
   Co28       1.0     0.841088     0.654078     0.775659    Uiso  ? Co
   Co29       1.0     0.161452     0.345526     0.224811    Uiso  ? Co
   Co30       1.0     0.162462     0.835883     0.225918    Uiso  ? Co
   Co31       1.0     0.994489     0.500560     0.107728    Uiso  ? Co
   Co32       1.0     0.484938     0.991947     0.108504    Uiso  ? Co
   Co33       1.0     0.853829     0.162987     0.558170    Uiso  ? Co
   Co34       1.0     0.162538     0.331752     0.442303    Uiso  ? Co
   Co35       1.0     0.161932     0.840374     0.441659    Uiso  ? Co
   Ni1        1.0     0.661046     0.835166     0.441570    Uiso  ? Ni
   Ni2        1.0     0.493988     0.502096     0.892057    Uiso  ? Ni
   Ni3        1.0     0.490220     0.495854     0.108831    Uiso  ? Ni
   Ni4        1.0     0.844456     0.156922     0.774231    Uiso  ? Ni
   Ni5        1.0     0.663238     0.841117     0.224356    Uiso  ? Ni
   Ni6        1.0     0.848202     0.665628     0.557842    Uiso  ? Ni
   Ni7        1.0     0.348467     0.167198     0.558418    Uiso  ? Ni
