
#======================================================================
# CRYSTAL DATA
#----------------------------------------------------------------------
data_VESTA_phase_1

_chemical_name_common                  'Sm12 Co42'
_cell_length_a                         5.006411
_cell_length_b                         5.006411
_cell_length_c                         36.360115
_cell_angle_alpha                      90.000000
_cell_angle_beta                       90.000000
_cell_angle_gamma                      120.000000
_cell_volume                           789.239647
_space_group_name_H-M_alt              'P 1'
_space_group_IT_number                 1

loop_
_space_group_symop_operation_xyz
   'x, y, z'

loop_
   _atom_site_label
   _atom_site_occupancy
   _atom_site_fract_x
   _atom_site_fract_y
   _atom_site_fract_z
   _atom_site_adp_type
   _atom_site_U_iso_or_equiv
   _atom_site_type_symbol
   Sm1        1.0     0.000000     0.000000     0.948629    Uiso  ? Sm
   Sm2        1.0     0.333333     0.666667     0.717953    Uiso  ? Sm
   Sm3        1.0     0.666667     0.333333     0.282077    Uiso  ? Sm
   Sm4        1.0     0.000000     0.000000     0.051231    Uiso  ? Sm
   Sm5        1.0     0.333333     0.666667     0.615359    Uiso  ? Sm
   Sm6        1.0     0.666667     0.333333     0.384674    Uiso  ? Sm
   Sm7        1.0     0.000000     0.000000     0.851836    Uiso  ? Sm
   Sm8        1.0     0.333333     0.666667     0.814715    Uiso  ? Sm
   Sm9        1.0     0.666667     0.333333     0.185269    Uiso  ? Sm
   Sm10       1.0     0.000000     0.000000     0.147894    Uiso  ? Sm
   Sm11       1.0     0.333333     0.666667     0.518527    Uiso  ? Sm
   Sm12       1.0     0.666667     0.333333     0.481476    Uiso  ? Sm
   Co1        1.0     0.666667     0.333333     0.833269    Uiso  ? Co
   Co2        1.0     0.333333     0.666667     0.166657    Uiso  ? Co
   Co3        1.0     0.000000     0.000000     0.500208    Uiso  ? Co
   Co4        1.0     0.000000     0.000000     0.721193    Uiso  ? Co
   Co5        1.0     0.333333     0.666667     0.945473    Uiso  ? Co
   Co6        1.0     0.666667     0.333333     0.054497    Uiso  ? Co
   Co7        1.0     0.000000     0.000000     0.279435    Uiso  ? Co
   Co8        1.0     0.333333     0.666667     0.388452    Uiso  ? Co
   Co9        1.0     0.666667     0.333333     0.612249    Uiso  ? Co
   Co10       1.0     0.666667     0.333333     0.945547    Uiso  ? Co
   Co11       1.0     0.666667     0.333333     0.721007    Uiso  ? Co
   Co12       1.0     0.333333     0.666667     0.054315    Uiso  ? Co
   Co13       1.0     0.000000     0.000000     0.612261    Uiso  ? Co
   Co14       1.0     0.000000     0.000000     0.387397    Uiso  ? Co
   Co15       1.0     0.500038     0.000077    -0.000063    Uiso  ? Co
   Co16       1.0     0.500038     0.499962    -0.000063    Uiso  ? Co
   Co17       1.0    -0.000077     0.499962    -0.000063    Uiso  ? Co
   Co18       1.0     0.167766     0.335532     0.333558    Uiso  ? Co
   Co19       1.0     0.167766     0.832234     0.333558    Uiso  ? Co
   Co20       1.0     0.664468     0.832234     0.333558    Uiso  ? Co
   Co21       1.0     0.833391     0.666782     0.666662    Uiso  ? Co
   Co22       1.0     0.833391     0.166609     0.666662    Uiso  ? Co
   Co23       1.0     0.333218     0.166609     0.666662    Uiso  ? Co
   Co24       1.0     0.997892     0.498946     0.891767    Uiso  ? Co
   Co25       1.0     0.501054     0.002108     0.891767    Uiso  ? Co
   Co26       1.0     0.501054     0.498946     0.891767    Uiso  ? Co
   Co27       1.0     0.335515     0.167757     0.774788    Uiso  ? Co
   Co28       1.0     0.832243     0.664485     0.774788    Uiso  ? Co
   Co29       1.0     0.832243     0.167757     0.774788    Uiso  ? Co
   Co30       1.0     0.666665     0.833332     0.224980    Uiso  ? Co
   Co31       1.0     0.166668     0.333335     0.224980    Uiso  ? Co
   Co32       1.0     0.166668     0.833332     0.224980    Uiso  ? Co
   Co33       1.0     0.002308     0.501154     0.108112    Uiso  ? Co
   Co34       1.0     0.498846     0.997692     0.108112    Uiso  ? Co
   Co35       1.0     0.498846     0.501154     0.108112    Uiso  ? Co
   Co36       1.0     0.331511     0.165756     0.558535    Uiso  ? Co
   Co37       1.0     0.834244     0.668489     0.558535    Uiso  ? Co
   Co38       1.0     0.834244     0.165756     0.558535    Uiso  ? Co
   Co39       1.0     0.669798     0.834899     0.441627    Uiso  ? Co
   Co40       1.0     0.165101     0.330202     0.441627    Uiso  ? Co
   Co41       1.0     0.165101     0.834899     0.441627    Uiso  ? Co
   Ni1        1.0     0.333333     0.666667     0.278499    Uiso  ? Ni
