
#======================================================================
# CRYSTAL DATA
#----------------------------------------------------------------------
data_VESTA_phase_1

_chemical_name_common                  'Sm12 Co42'
_cell_length_a                         5.027755
_cell_length_b                         4.983427
_cell_length_c                         36.276909
_cell_angle_alpha                      90.000000
_cell_angle_beta                       90.000000
_cell_angle_gamma                      120.000000
_cell_volume                           787.160073
_space_group_name_H-M_alt              'P 1'
_space_group_IT_number                 1

loop_
_space_group_symop_operation_xyz
   'x, y, z'

loop_
   _atom_site_label
   _atom_site_occupancy
   _atom_site_fract_x
   _atom_site_fract_y
   _atom_site_fract_z
   _atom_site_adp_type
   _atom_site_U_iso_or_equiv
   _atom_site_type_symbol
   Sm1        1.0    -0.000264    -0.000132     0.948730    Uiso  ? Sm
   Sm2        1.0     0.334335     0.667167     0.717823    Uiso  ? Sm
   Sm3        1.0     0.665892     0.332946     0.282139    Uiso  ? Sm
   Sm4        1.0     0.000396     0.000198     0.051368    Uiso  ? Sm
   Sm5        1.0     0.335724     0.667862     0.615154    Uiso  ? Sm
   Sm6        1.0     0.661858     0.330929     0.384708    Uiso  ? Sm
   Sm7        1.0    -0.000503    -0.000251     0.851871    Uiso  ? Sm
   Sm8        1.0     0.334058     0.667029     0.814720    Uiso  ? Sm
   Sm9        1.0     0.666627     0.333314     0.185339    Uiso  ? Sm
   Sm10       1.0     0.001484     0.000742     0.148220    Uiso  ? Sm
   Sm11       1.0     0.337027     0.668513     0.518292    Uiso  ? Sm
   Sm12       1.0     0.669072     0.334536     0.480968    Uiso  ? Sm
   Co1        1.0     0.667187     0.333594     0.833296    Uiso  ? Co
   Co2        1.0     0.333752     0.666876     0.166808    Uiso  ? Co
   Co3        1.0     0.007240     0.003620     0.499769    Uiso  ? Co
   Co4        1.0    -0.001643    -0.000822     0.721017    Uiso  ? Co
   Co5        1.0     0.340239     0.670119     0.945503    Uiso  ? Co
   Co6        1.0     0.659196     0.329598     0.054590    Uiso  ? Co
   Co7        1.0     0.988468     0.994234     0.279204    Uiso  ? Co
   Co8        1.0     0.300826     0.650413     0.388075    Uiso  ? Co
   Co9        1.0     0.682458     0.341229     0.611790    Uiso  ? Co
   Co10       1.0     0.659260     0.329630     0.945597    Uiso  ? Co
   Co11       1.0     0.671111     0.335556     0.721010    Uiso  ? Co
   Co12       1.0     0.342431     0.671216     0.279120    Uiso  ? Co
   Co13       1.0     0.341394     0.670697     0.054453    Uiso  ? Co
   Co14       1.0    -0.009156    -0.004578     0.612182    Uiso  ? Co
   Co15       1.0     0.020380     0.010190     0.387557    Uiso  ? Co
   Co16       1.0     0.500346     0.000210     0.000031    Uiso  ? Co
   Co17       1.0     0.500346     0.500136     0.000031    Uiso  ? Co
   Co18       1.0     0.000392     0.500196     0.000062    Uiso  ? Co
   Co19       1.0     0.166457     0.334057     0.332952    Uiso  ? Co
   Co20       1.0     0.166457     0.832399     0.332952    Uiso  ? Co
   Co21       1.0     0.666458     0.833229     0.334997    Uiso  ? Co
   Co22       1.0     0.833542     0.666626     0.666661    Uiso  ? Co
   Co23       1.0     0.833542     0.166916     0.666661    Uiso  ? Co
   Co24       1.0     0.334292     0.167146     0.666141    Uiso  ? Co
   Co25       1.0     0.998413     0.499207     0.892256    Uiso  ? Co
   Co26       1.0     0.500894     0.002145     0.891601    Uiso  ? Co
   Co27       1.0     0.500894     0.498749     0.891601    Uiso  ? Co
   Co28       1.0     0.335759     0.167879     0.774436    Uiso  ? Co
   Co29       1.0     0.832908     0.664927     0.774926    Uiso  ? Co
   Co30       1.0     0.832908     0.167981     0.774926    Uiso  ? Co
   Co31       1.0     0.663894     0.831947     0.225089    Uiso  ? Co
   Co32       1.0     0.166869     0.334740     0.225493    Uiso  ? Co
   Co33       1.0     0.166869     0.832128     0.225493    Uiso  ? Co
   Co34       1.0     0.001355     0.500678     0.107787    Uiso  ? Co
   Co35       1.0     0.499296     0.997561     0.108475    Uiso  ? Co
   Co36       1.0     0.499296     0.501735     0.108475    Uiso  ? Co
   Co37       1.0     0.335379     0.167689     0.559064    Uiso  ? Co
   Co38       1.0     0.839583     0.671153     0.557867    Uiso  ? Co
   Co39       1.0     0.839583     0.168430     0.557867    Uiso  ? Co
   Co40       1.0     0.158686     0.324739     0.442007    Uiso  ? Co
   Co41       1.0     0.158686     0.833947     0.442007    Uiso  ? Co
   Ni1        1.0     0.658050     0.829025     0.440837    Uiso  ? Ni
