
#======================================================================
# CRYSTAL DATA
#----------------------------------------------------------------------
data_VESTA_phase_1

_chemical_name_common                  'Sm12 Co42'
_cell_length_a                         5.050309
_cell_length_b                         5.012732
_cell_length_c                         36.262791
_cell_angle_alpha                      90.000000
_cell_angle_beta                       90.000000
_cell_angle_gamma                      120.428864
_cell_volume                           791.573474
_space_group_name_H-M_alt              'P 1'
_space_group_IT_number                 1

loop_
_space_group_symop_operation_xyz
   'x, y, z'

loop_
   _atom_site_label
   _atom_site_occupancy
   _atom_site_fract_x
   _atom_site_fract_y
   _atom_site_fract_z
   _atom_site_adp_type
   _atom_site_U_iso_or_equiv
   _atom_site_type_symbol
   Sm1        1.0     0.998762     0.001381     0.948624    Uiso  ? Sm
   Sm2        1.0     0.337494     0.665829     0.717940    Uiso  ? Sm
   Sm3        1.0     0.662061     0.334101     0.282060    Uiso  ? Sm
   Sm4        1.0     0.001297     0.998704     0.051321    Uiso  ? Sm
   Sm5        1.0     0.338598     0.668161     0.615256    Uiso  ? Sm
   Sm6        1.0     0.659453     0.331001     0.384673    Uiso  ? Sm
   Sm7        1.0     0.002072     0.997933     0.852210    Uiso  ? Sm
   Sm8        1.0     0.336647     0.664869     0.814840    Uiso  ? Sm
   Sm9        1.0     0.662712     0.334486     0.185187    Uiso  ? Sm
   Sm10       1.0     0.997532     0.001846     0.147795    Uiso  ? Sm
   Sm11       1.0     0.339292     0.668792     0.518356    Uiso  ? Sm
   Sm12       1.0     0.669721     0.335531     0.480971    Uiso  ? Sm
   Co1        1.0     0.671574     0.328985     0.833413    Uiso  ? Co
   Co2        1.0     0.327885     0.670708     0.166638    Uiso  ? Co
   Co3        1.0     0.009291     0.005060     0.499839    Uiso  ? Co
   Co4        1.0     0.013596     0.988662     0.721277    Uiso  ? Co
   Co5        1.0     0.328123     0.679304     0.945349    Uiso  ? Co
   Co6        1.0     0.671201     0.324533     0.054598    Uiso  ? Co
   Co7        1.0     0.979704     0.005923     0.279015    Uiso  ? Co
   Co8        1.0     0.300124     0.648851     0.388010    Uiso  ? Co
   Co9        1.0     0.683382     0.340578     0.612111    Uiso  ? Co
   Co10       1.0     0.668497     0.323793     0.945699    Uiso  ? Co
   Co11       1.0     0.662347     0.342271     0.720944    Uiso  ? Co
   Co12       1.0     0.343341     0.662783     0.279114    Uiso  ? Co
   Co13       1.0     0.331976     0.672545     0.054216    Uiso  ? Co
   Co14       1.0     0.995448     0.995964     0.612203    Uiso  ? Co
   Co15       1.0     0.016471     0.012894     0.387631    Uiso  ? Co
   Co16       1.0     0.500171     0.000017     0.000103    Uiso  ? Co
   Co17       1.0     0.500170     0.500017    -0.000201    Uiso  ? Co
   Co18       1.0     0.000154     0.500040    -0.000008    Uiso  ? Co
   Co19       1.0     0.163054     0.333600     0.333189    Uiso  ? Co
   Co20       1.0     0.162674     0.832194     0.332495    Uiso  ? Co
   Co21       1.0     0.663326     0.833072     0.335021    Uiso  ? Co
   Co22       1.0     0.836930     0.667414     0.666452    Uiso  ? Co
   Co23       1.0     0.837338     0.167204     0.667560    Uiso  ? Co
   Co24       1.0     0.337070     0.167206     0.665887    Uiso  ? Co
   Co25       1.0     0.993553     0.499106     0.891789    Uiso  ? Co
   Co26       1.0     0.502118     0.007733     0.891255    Uiso  ? Co
   Co27       1.0     0.339951     0.165216     0.775238    Uiso  ? Co
   Co28       1.0     0.836874     0.661976     0.775432    Uiso  ? Co
   Co29       1.0     0.836637     0.165474     0.773846    Uiso  ? Co
   Co30       1.0     0.659366     0.833873     0.224598    Uiso  ? Co
   Co31       1.0     0.162219     0.337080     0.224901    Uiso  ? Co
   Co32       1.0     0.162158     0.833976     0.226285    Uiso  ? Co
   Co33       1.0     0.006418     0.501124     0.108176    Uiso  ? Co
   Co34       1.0     0.497649     0.992207     0.108515    Uiso  ? Co
   Co35       1.0     0.337309     0.167608     0.558900    Uiso  ? Co
   Co36       1.0     0.841828     0.671461     0.557905    Uiso  ? Co
   Co37       1.0     0.840883     0.169181     0.558294    Uiso  ? Co
   Co38       1.0     0.158487     0.324468     0.442254    Uiso  ? Co
   Co39       1.0     0.158158     0.834291     0.441596    Uiso  ? Co
   Ni1        1.0     0.657216     0.829001     0.441068    Uiso  ? Ni
   Ni2        1.0     0.497367     0.503364     0.891863    Uiso  ? Ni
   Ni3        1.0     0.502324     0.496614     0.108298    Uiso  ? Ni
