
#======================================================================
# CRYSTAL DATA
#----------------------------------------------------------------------
data_VESTA_phase_1

_chemical_name_common                  'Sm12 Co42'
_cell_length_a                         5.043813
_cell_length_b                         4.999895
_cell_length_c                         36.273830
_cell_angle_alpha                      90.000000
_cell_angle_beta                       90.000000
_cell_angle_gamma                      120.291000
_cell_volume                           789.883291
_space_group_name_H-M_alt              'P 1'
_space_group_IT_number                 1

loop_
_space_group_symop_operation_xyz
   'x, y, z'

loop_
   _atom_site_label
   _atom_site_occupancy
   _atom_site_fract_x
   _atom_site_fract_y
   _atom_site_fract_z
   _atom_site_adp_type
   _atom_site_U_iso_or_equiv
   _atom_site_type_symbol
   Sm1        1.0     0.997115     0.002772     0.948482    Uiso  ? Sm
   Sm2        1.0     0.336685     0.665676     0.718006    Uiso  ? Sm
   Sm3        1.0     0.664465     0.332417     0.282207    Uiso  ? Sm
   Sm4        1.0     0.998714     0.000916     0.051127    Uiso  ? Sm
   Sm5        1.0     0.337676     0.667657     0.615328    Uiso  ? Sm
   Sm6        1.0     0.661010     0.330561     0.384851    Uiso  ? Sm
   Sm7        1.0     0.001806     0.998264     0.852218    Uiso  ? Sm
   Sm8        1.0     0.336780     0.664667     0.814886    Uiso  ? Sm
   Sm9        1.0     0.666556     0.332562     0.185278    Uiso  ? Sm
   Sm10       1.0     0.000661     0.000771     0.148056    Uiso  ? Sm
   Sm11       1.0     0.338780     0.668666     0.518447    Uiso  ? Sm
   Sm12       1.0     0.670209     0.335070     0.481116    Uiso  ? Sm
   Co1        1.0     0.671428     0.328907     0.833348    Uiso  ? Co
   Co2        1.0     0.333235     0.666667     0.166667    Uiso  ? Co
   Co3        1.0     0.009188     0.004426     0.499986    Uiso  ? Co
   Co4        1.0     0.007843     0.990953     0.721217    Uiso  ? Co
   Co5        1.0     0.319998     0.685220     0.945086    Uiso  ? Co
   Co6        1.0     0.651370     0.332459     0.054071    Uiso  ? Co
   Co7        1.0     0.985577     0.000874     0.279262    Uiso  ? Co
   Co8        1.0     0.301445     0.648113     0.388247    Uiso  ? Co
   Co9        1.0     0.683556     0.342381     0.612116    Uiso  ? Co
   Co10       1.0     0.672453     0.321010     0.945619    Uiso  ? Co
   Co11       1.0     0.666940     0.339906     0.721033    Uiso  ? Co
   Co12       1.0     0.342481     0.663928     0.279133    Uiso  ? Co
   Co13       1.0     0.345220     0.669406     0.054201    Uiso  ? Co
   Co14       1.0     0.993701     0.993428     0.612301    Uiso  ? Co
   Co15       1.0     0.018110     0.012324     0.387714    Uiso  ? Co
   Co16       1.0     0.498312    -0.000024     0.000111    Uiso  ? Co
   Co17       1.0     0.499037     0.500775     0.998266    Uiso  ? Co
   Co18       1.0     1.000014     0.501935     0.000440    Uiso  ? Co
   Co19       1.0     0.165003     0.333358     0.333222    Uiso  ? Co
   Co20       1.0     0.164745     0.831398     0.332894    Uiso  ? Co
   Co21       1.0     0.664929     0.832558     0.335067    Uiso  ? Co
   Co22       1.0     0.835855     0.666667     0.666667    Uiso  ? Co
   Co23       1.0     0.836281     0.166473     0.667245    Uiso  ? Co
   Co24       1.0     0.336475     0.166861     0.666089    Uiso  ? Co
   Co25       1.0     0.991851     0.499482     0.891507    Uiso  ? Co
   Co26       1.0     0.502059     0.009317     0.890957    Uiso  ? Co
   Co27       1.0     0.338380     0.164532     0.774982    Uiso  ? Co
   Co28       1.0     0.836492     0.662377     0.775398    Uiso  ? Co
   Co29       1.0     0.835738     0.165706     0.774230    Uiso  ? Co
   Co30       1.0     0.662256     0.830754     0.224960    Uiso  ? Co
   Co31       1.0     0.166715     0.335004     0.225183    Uiso  ? Co
   Co32       1.0     0.165622     0.832596     0.225916    Uiso  ? Co
   Co33       1.0     0.999693     0.500738     0.107417    Uiso  ? Co
   Co34       1.0     0.498379     0.998330     0.108150    Uiso  ? Co
   Co35       1.0     0.498169     0.502580     0.108373    Uiso  ? Co
   Co36       1.0     0.336699     0.167628     0.559104    Uiso  ? Co
   Co37       1.0     0.840782     0.670956     0.557936    Uiso  ? Co
   Co38       1.0     0.840515     0.168801     0.558351    Uiso  ? Co
   Co39       1.0     0.159409     0.324016     0.442376    Uiso  ? Co
   Co40       1.0     0.159035     0.833851     0.441826    Uiso  ? Co
   Ni1        1.0     0.658347     0.828809     0.441161    Uiso  ? Ni
   Ni2        1.0     0.496205     0.504525     0.892173    Uiso  ? Ni
