
#======================================================================
# CRYSTAL DATA
#----------------------------------------------------------------------
data_VESTA_phase_1

_chemical_name_common                  'Sm8 Co28'
_cell_length_a                         4.959536
_cell_length_b                         5.036315
_cell_length_c                         24.230618
_cell_angle_alpha                      90.000000
_cell_angle_beta                       90.000000
_cell_angle_gamma                      119.496964
_cell_volume                           526.778711
_space_group_name_H-M_alt              'P 1'
_space_group_IT_number                 1

loop_
_space_group_symop_operation_xyz
   'x, y, z'

loop_
   _atom_site_label
   _atom_site_occupancy
   _atom_site_fract_x
   _atom_site_fract_y
   _atom_site_fract_z
   _atom_site_adp_type
   _atom_site_U_iso_or_equiv
   _atom_site_type_symbol
   Sm1        1.0     0.668197     0.336394     0.528797    Uiso  ? Sm
   Sm2        1.0     0.334620     0.669239     0.028526    Uiso  ? Sm
   Sm3        1.0     0.335025     0.670050     0.471882    Uiso  ? Sm
   Sm4        1.0     0.668588     0.337176     0.972476    Uiso  ? Sm
   Sm5        1.0     0.668070     0.336140     0.673047    Uiso  ? Sm
   Sm6        1.0     0.330504     0.661008     0.173018    Uiso  ? Sm
   Sm7        1.0     0.330994     0.661987     0.327082    Uiso  ? Sm
   Sm8        1.0     0.668221     0.336441     0.827014    Uiso  ? Sm
   Co1        1.0     0.005528     0.011055     0.498373    Uiso  ? Co
   Co2        1.0     0.003738     0.007476     0.000468    Uiso  ? Co
   Co3        1.0     0.998711     0.997421     0.670178    Uiso  ? Co
   Co4        1.0     0.010353     0.020706     0.168620    Uiso  ? Co
   Co5        1.0     0.997743     0.995486     0.330878    Uiso  ? Co
   Co6        1.0     0.996775     0.993550     0.831716    Uiso  ? Co
   Co7        1.0     0.664536     0.329072     0.331790    Uiso  ? Co
   Co8        1.0     0.340315     0.680631     0.832598    Uiso  ? Co
   Co9        1.0     0.337928     0.675857     0.668597    Uiso  ? Co
   Co10       1.0     0.649963     0.299926     0.168066    Uiso  ? Co
   Co11       1.0     0.666610     0.834413     0.749614    Uiso  ? Co
   Co12       1.0     0.832143     0.664286     0.248270    Uiso  ? Co
   Co13       1.0     0.830915     0.163469     0.250678    Uiso  ? Co
   Co14       1.0     0.167804     0.834413     0.749614    Uiso  ? Co
   Co15       1.0     0.167805     0.335609     0.749756    Uiso  ? Co
   Co16       1.0     0.332553     0.163469     0.250678    Uiso  ? Co
   Co17       1.0     0.833194     0.158599     0.087036    Uiso  ? Co
   Co18       1.0     0.325405     0.158599     0.087036    Uiso  ? Co
   Co19       1.0     0.327676     0.160996     0.411978    Uiso  ? Co
   Co20       1.0     0.833320     0.160996     0.411978    Uiso  ? Co
   Co21       1.0     0.168689     0.840124     0.913073    Uiso  ? Co
   Co22       1.0     0.671434     0.840124     0.913073    Uiso  ? Co
   Co23       1.0     0.167111     0.334222     0.911288    Uiso  ? Co
   Ni1        1.0     0.831100     0.662199     0.412911    Uiso  ? Ni
   Ni2        1.0     0.829503     0.659005     0.089048    Uiso  ? Ni
   Ni3        1.0     0.671074     0.838527     0.586530    Uiso  ? Ni
   Ni4        1.0     0.166404     0.332807     0.587782    Uiso  ? Ni
   Ni5        1.0     0.167454     0.838527     0.586530    Uiso  ? Ni
