
#======================================================================
# CRYSTAL DATA
#----------------------------------------------------------------------
data_VESTA_phase_1

_chemical_name_common                  'Sm8 Co28'
_cell_length_a                         4.946291
_cell_length_b                         5.046601
_cell_length_c                         24.216135
_cell_angle_alpha                      90.000000
_cell_angle_beta                       90.000000
_cell_angle_gamma                      119.344635
_cell_volume                           526.919750
_space_group_name_H-M_alt              'P 1'
_space_group_IT_number                 1

loop_
_space_group_symop_operation_xyz
   'x, y, z'

loop_
   _atom_site_label
   _atom_site_occupancy
   _atom_site_fract_x
   _atom_site_fract_y
   _atom_site_fract_z
   _atom_site_adp_type
   _atom_site_U_iso_or_equiv
   _atom_site_type_symbol
   Sm1        1.0     0.668384     0.336767     0.527682    Uiso  ? Sm
   Sm2        1.0     0.334909     0.669819     0.028374    Uiso  ? Sm
   Sm3        1.0     0.334909     0.669819     0.471626    Uiso  ? Sm
   Sm4        1.0     0.668384     0.336767     0.972318    Uiso  ? Sm
   Sm5        1.0     0.667578     0.335156     0.673032    Uiso  ? Sm
   Sm6        1.0     0.331320     0.662640     0.173002    Uiso  ? Sm
   Sm7        1.0     0.331320     0.662640     0.326998    Uiso  ? Sm
   Sm8        1.0     0.667578     0.335156     0.826968    Uiso  ? Sm
   Co1        1.0     0.003718     0.007435     0.499794    Uiso  ? Co
   Co2        1.0     0.003718     0.007435     0.000206    Uiso  ? Co
   Co3        1.0     0.993437     0.986873     0.668464    Uiso  ? Co
   Co4        1.0     0.007712     0.015424     0.168583    Uiso  ? Co
   Co5        1.0     0.007712     0.015424     0.331417    Uiso  ? Co
   Co6        1.0     0.993437     0.986873     0.831536    Uiso  ? Co
   Co7        1.0     0.654240     0.308481     0.332017    Uiso  ? Co
   Co8        1.0     0.341612     0.683224     0.832260    Uiso  ? Co
   Co9        1.0     0.341612     0.683224     0.667740    Uiso  ? Co
   Co10       1.0     0.654240     0.308481     0.167983    Uiso  ? Co
   Co11       1.0     0.667140     0.834651     0.750000    Uiso  ? Co
   Co12       1.0     0.833549     0.667099     0.250000    Uiso  ? Co
   Co13       1.0     0.832069     0.165732     0.250000    Uiso  ? Co
   Co14       1.0     0.167512     0.834651     0.750000    Uiso  ? Co
   Co15       1.0     0.166778     0.333556     0.750000    Uiso  ? Co
   Co16       1.0     0.333663     0.165732     0.250000    Uiso  ? Co
   Co17       1.0     0.671147     0.839585     0.586797    Uiso  ? Co
   Co18       1.0     0.168438     0.839585     0.586797    Uiso  ? Co
   Co19       1.0     0.166866     0.333732     0.589257    Uiso  ? Co
   Co20       1.0     0.833568     0.159905     0.086994    Uiso  ? Co
   Co21       1.0     0.326336     0.159905     0.086994    Uiso  ? Co
   Co22       1.0     0.326336     0.159905     0.413006    Uiso  ? Co
   Co23       1.0     0.833568     0.159905     0.413006    Uiso  ? Co
   Co24       1.0     0.168438     0.839585     0.913203    Uiso  ? Co
   Co25       1.0     0.671147     0.839585     0.913203    Uiso  ? Co
   Co26       1.0     0.166866     0.333732     0.910743    Uiso  ? Co
   Ni1        1.0     0.830379     0.660757     0.411403    Uiso  ? Ni
   Ni2        1.0     0.830379     0.660757     0.088597    Uiso  ? Ni
