
#======================================================================
# CRYSTAL DATA
#----------------------------------------------------------------------
data_VESTA_phase_1

_chemical_name_common                  'Sm8 Co28'
_cell_length_a                         4.995636
_cell_length_b                         4.995636
_cell_length_c                         24.364569
_cell_angle_alpha                      90.000000
_cell_angle_beta                       90.000000
_cell_angle_gamma                      120.000000
_cell_volume                           526.587866
_space_group_name_H-M_alt              'P 1'
_space_group_IT_number                 1

loop_
_space_group_symop_operation_xyz
   'x, y, z'

loop_
   _atom_site_label
   _atom_site_occupancy
   _atom_site_fract_x
   _atom_site_fract_y
   _atom_site_fract_z
   _atom_site_adp_type
   _atom_site_U_iso_or_equiv
   _atom_site_type_symbol
   Sm1        1.0     0.666667     0.333333     0.528557    Uiso  ? Sm
   Sm2        1.0     0.333333     0.666667     0.027758    Uiso  ? Sm
   Sm3        1.0     0.333333     0.666667     0.471443    Uiso  ? Sm
   Sm4        1.0     0.666667     0.333333     0.972242    Uiso  ? Sm
   Sm5        1.0     0.666667     0.333333     0.673583    Uiso  ? Sm
   Sm6        1.0     0.333333     0.666667     0.172661    Uiso  ? Sm
   Sm7        1.0     0.333333     0.666667     0.326417    Uiso  ? Sm
   Sm8        1.0     0.666667     0.333333     0.827339    Uiso  ? Sm
   Co1        1.0     0.000000     0.000000     0.000000    Uiso  ? Co
   Co2        1.0     0.000000     0.000000     0.670204    Uiso  ? Co
   Co3        1.0     0.000000     0.000000     0.168135    Uiso  ? Co
   Co4        1.0     0.000000     0.000000     0.329796    Uiso  ? Co
   Co5        1.0     0.000000     0.000000     0.831865    Uiso  ? Co
   Co6        1.0     0.666667     0.333333     0.331530    Uiso  ? Co
   Co7        1.0     0.333333     0.666667     0.832421    Uiso  ? Co
   Co8        1.0     0.333333     0.666667     0.668470    Uiso  ? Co
   Co9        1.0     0.666667     0.333333     0.167579    Uiso  ? Co
   Co10       1.0     0.666593     0.833297     0.750703    Uiso  ? Co
   Co11       1.0     0.833297     0.666593     0.249297    Uiso  ? Co
   Co12       1.0     0.833297     0.166703     0.249297    Uiso  ? Co
   Co13       1.0     0.166703     0.833297     0.750703    Uiso  ? Co
   Co14       1.0     0.166703     0.333407     0.750703    Uiso  ? Co
   Co15       1.0     0.333407     0.166703     0.249297    Uiso  ? Co
   Co16       1.0     0.670703     0.835352     0.589204    Uiso  ? Co
   Co17       1.0     0.164648     0.835352     0.589204    Uiso  ? Co
   Co18       1.0     0.164648     0.329297     0.589204    Uiso  ? Co
   Co19       1.0     0.834578     0.669156     0.087605    Uiso  ? Co
   Co20       1.0     0.834578     0.165422     0.087605    Uiso  ? Co
   Co21       1.0     0.330844     0.165422     0.087605    Uiso  ? Co
   Co22       1.0     0.329297     0.164648     0.410796    Uiso  ? Co
   Co23       1.0     0.835352     0.670703     0.410796    Uiso  ? Co
   Co24       1.0     0.835352     0.164648     0.410796    Uiso  ? Co
   Co25       1.0     0.165422     0.834578     0.912395    Uiso  ? Co
   Co26       1.0     0.669156     0.834578     0.912395    Uiso  ? Co
   Co27       1.0     0.165422     0.330844     0.912395    Uiso  ? Co
   Ni1        1.0     0.000000     0.000000     0.500000    Uiso  ? Ni
