
#======================================================================
# CRYSTAL DATA
#----------------------------------------------------------------------
data_VESTA_phase_1

_chemical_name_common                  'Sm1 Co5                               '
_cell_length_a                         10.134546
_cell_length_b                         4.884330
_cell_length_c                         7.958643
_cell_angle_alpha                      89.999977
_cell_angle_beta                       89.999794
_cell_angle_gamma                      118.825195
_cell_volume                           345.143254
_space_group_name_H-M_alt              'P 1'
_space_group_IT_number                 1

loop_
_space_group_symop_operation_xyz
   'x, y, z'

loop_
   _atom_site_label
   _atom_site_occupancy
   _atom_site_fract_x
   _atom_site_fract_y
   _atom_site_fract_z
   _atom_site_adp_type
   _atom_site_U_iso_or_equiv
   _atom_site_type_symbol
   Sm1        1.0    -0.000029    -0.000022     0.997097    Uiso  ? Sm
   Sm2        1.0     0.500009     0.000013     0.003844    Uiso  ? Sm
   Sm3        1.0    -0.000039    -0.000031     0.502908    Uiso  ? Sm
   Sm4        1.0     0.500058     0.000041     0.496146    Uiso  ? Sm
   Co1        1.0     0.182607     0.682650     0.002047    Uiso  ? Co
   Co2        1.0     0.314491     0.314464     0.997635    Uiso  ? Co
   Co3        1.0     0.685487     0.685536     0.997614    Uiso  ? Co
   Co4        1.0     0.817365     0.317332     0.002047    Uiso  ? Co
   Co5        1.0     0.182635     0.682666     0.497965    Uiso  ? Co
   Co6        1.0     0.314488     0.314434     0.502374    Uiso  ? Co
   Co7        1.0     0.685535     0.685549     0.502369    Uiso  ? Co
   Co8        1.0     0.817391     0.317366     0.497953    Uiso  ? Co
   Co9        1.0     0.254952     0.002726     0.249989    Uiso  ? Co
   Co10       1.0     0.745044     0.997274     0.249994    Uiso  ? Co
   Co11       1.0     0.254951     0.507155     0.249991    Uiso  ? Co
   Co12       1.0     0.745040     0.492839     0.249989    Uiso  ? Co
   Co13       1.0    -0.000007     0.500001     0.750005    Uiso  ? Co
   Co14       1.0     0.244027     0.995404     0.750023    Uiso  ? Co
   Co15       1.0     0.244040     0.492609     0.750022    Uiso  ? Co
   Co16       1.0     0.755981     0.004601     0.750002    Uiso  ? Co
   Co17       1.0     0.755966     0.507388     0.750007    Uiso  ? Co
   Ni1        1.0     0.500007     0.500000     0.249998    Uiso  ? Ni
   Mn1        1.0     0.500021     0.500008     0.750010    Uiso  ? Mn
   Mn2        1.0    -0.000019     0.499997     0.249972    Uiso  ? Mn
