
#======================================================================
# CRYSTAL DATA
#----------------------------------------------------------------------
data_VESTA_phase_1

_chemical_name_common                  'Sm1 Co5                               '
_cell_length_a                         10.218605
_cell_length_b                         4.997766
_cell_length_c                         8.049069
_cell_angle_alpha                      89.999847
_cell_angle_beta                       89.999924
_cell_angle_gamma                      119.271935
_cell_volume                           358.577919
_space_group_name_H-M_alt              'P 1'
_space_group_IT_number                 1

loop_
_space_group_symop_operation_xyz
   'x, y, z'

loop_
   _atom_site_label
   _atom_site_occupancy
   _atom_site_fract_x
   _atom_site_fract_y
   _atom_site_fract_z
   _atom_site_adp_type
   _atom_site_U_iso_or_equiv
   _atom_site_type_symbol
   Sm1        1.0     0.000036     0.980204     0.000453    Uiso  ? Sm
   Sm2        1.0     0.499957     0.019979     0.004444    Uiso  ? Sm
   Sm3        1.0     0.000047     0.980218     0.499544    Uiso  ? Sm
   Sm4        1.0     0.499946     0.019966     0.495556    Uiso  ? Sm
   Co1        1.0     0.171763     0.653974     0.001785    Uiso  ? Co
   Co2        1.0     0.327500     0.348326     0.998548    Uiso  ? Co
   Co3        1.0     0.672559     0.693240     0.998550    Uiso  ? Co
   Co4        1.0     0.828188     0.310603     0.001818    Uiso  ? Co
   Co5        1.0     0.171768     0.653992     0.498215    Uiso  ? Co
   Co6        1.0     0.327497     0.348312     0.501449    Uiso  ? Co
   Co7        1.0     0.672545     0.693208     0.501452    Uiso  ? Co
   Co8        1.0     0.828189     0.310592     0.498183    Uiso  ? Co
   Co9        1.0     0.743770     0.993811     0.250001    Uiso  ? Co
   Co10       1.0     0.256298     0.506623     0.250003    Uiso  ? Co
   Co11       1.0     0.249307     0.500648     0.749995    Uiso  ? Co
   Co12       1.0     0.750690     0.002020     0.750004    Uiso  ? Co
   Ni1        1.0     0.500002     0.510698     0.250000    Uiso  ? Ni
   Mn1        1.0     0.499980     0.531464     0.750000    Uiso  ? Mn
   Mn2        1.0     0.000017     0.469276     0.249998    Uiso  ? Mn
   Mn3        1.0     0.000003     0.472282     0.750002    Uiso  ? Mn
   Mn4        1.0     0.746336     0.496476     0.249992    Uiso  ? Mn
   Mn5        1.0     0.253619     0.004007     0.250005    Uiso  ? Mn
   Mn6        1.0     0.749874     0.499904     0.750006    Uiso  ? Mn
   Mn7        1.0     0.250108     0.000178     0.749998    Uiso  ? Mn
