
#======================================================================
# CRYSTAL DATA
#----------------------------------------------------------------------
data_VESTA_phase_1

_chemical_name_common                  'Sm1 Co5                               '
_cell_length_a                         10.189214
_cell_length_b                         4.858845
_cell_length_c                         8.001886
_cell_angle_alpha                      89.999603
_cell_angle_beta                       89.998924
_cell_angle_gamma                      118.488449
_cell_volume                           348.186678
_space_group_name_H-M_alt              'P 1'
_space_group_IT_number                 1

loop_
_space_group_symop_operation_xyz
   'x, y, z'

loop_
   _atom_site_label
   _atom_site_occupancy
   _atom_site_fract_x
   _atom_site_fract_y
   _atom_site_fract_z
   _atom_site_adp_type
   _atom_site_U_iso_or_equiv
   _atom_site_type_symbol
   Sm1        1.0     0.999986     0.000001     0.002257    Uiso  ? Sm
   Sm2        1.0     0.500022     1.000008     0.006629    Uiso  ? Sm
   Sm3        1.0    -0.000030     0.000003     0.497721    Uiso  ? Sm
   Sm4        1.0     0.500022     0.999978     0.493384    Uiso  ? Sm
   Co1        1.0     0.188616     0.688782     0.002231    Uiso  ? Co
   Co2        1.0     0.312320     0.312587     0.999422    Uiso  ? Co
   Co3        1.0     0.687699     0.687432     0.999409    Uiso  ? Co
   Co4        1.0     0.811383     0.311216     0.002241    Uiso  ? Co
   Co5        1.0     0.188625     0.688821     0.497771    Uiso  ? Co
   Co6        1.0     0.312317     0.312556     0.500582    Uiso  ? Co
   Co7        1.0     0.687660     0.687341     0.500587    Uiso  ? Co
   Co8        1.0     0.811390     0.311258     0.497743    Uiso  ? Co
   Co9        1.0     0.254571     0.003404     0.250001    Uiso  ? Co
   Co10       1.0     0.745421     0.996586     0.249998    Uiso  ? Co
   Co11       1.0     0.254535     0.505884     0.250007    Uiso  ? Co
   Co12       1.0     0.745436     0.494105     0.249986    Uiso  ? Co
   Co13       1.0     0.250164     0.000438     0.750010    Uiso  ? Co
   Co14       1.0     0.250137     0.500136     0.750004    Uiso  ? Co
   Co15       1.0     0.749855     0.999612     0.749992    Uiso  ? Co
   Co16       1.0     0.749873     0.499868     0.750012    Uiso  ? Co
   Ni1        1.0     0.499994     0.499937     0.250010    Uiso  ? Ni
   Mn1        1.0     0.500010     0.499990     0.750011    Uiso  ? Mn
   Mn2        1.0    -0.000011     0.500026     0.249963    Uiso  ? Mn
   Mn3        1.0     0.000004     0.500032     0.750031    Uiso  ? Mn
