
#======================================================================
# CRYSTAL DATA
#----------------------------------------------------------------------
data_VESTA_phase_1

_chemical_name_common                  'Sm1 Co5                               '
_cell_length_a                         10.164535
_cell_length_b                         4.884967
_cell_length_c                         8.018526
_cell_angle_alpha                      89.998322
_cell_angle_beta                       90.001091
_cell_angle_gamma                      118.213531
_cell_volume                           350.844091
_space_group_name_H-M_alt              'P 1'
_space_group_IT_number                 1

loop_
_space_group_symop_operation_xyz
   'x, y, z'

loop_
   _atom_site_label
   _atom_site_occupancy
   _atom_site_fract_x
   _atom_site_fract_y
   _atom_site_fract_z
   _atom_site_adp_type
   _atom_site_U_iso_or_equiv
   _atom_site_type_symbol
   Sm1        1.0    -0.000315    -0.005788     0.000659    Uiso  ? Sm
   Sm2        1.0     0.500325     0.005881     0.004240    Uiso  ? Sm
   Sm3        1.0    -0.000333    -0.005830     0.499341    Uiso  ? Sm
   Sm4        1.0     0.500367     0.005936     0.495758    Uiso  ? Sm
   Co1        1.0     0.182315     0.674858     0.002578    Uiso  ? Co
   Co2        1.0     0.314539     0.323419    -0.004127    Uiso  ? Co
   Co3        1.0     0.687231     0.689884    -0.000333    Uiso  ? Co
   Co4        1.0     0.814569     0.310438     0.002492    Uiso  ? Co
   Co5        1.0     0.182058     0.674591     0.497395    Uiso  ? Co
   Co6        1.0     0.314541     0.323498     0.504125    Uiso  ? Co
   Co7        1.0     0.687218     0.689877     0.500343    Uiso  ? Co
   Co8        1.0     0.814940     0.310780     0.497502    Uiso  ? Co
   Co9        1.0     0.744556    -0.005649     0.250013    Uiso  ? Co
   Co10       1.0     0.256058     0.505893     0.250017    Uiso  ? Co
   Co11       1.0     0.746308     0.492852     0.250015    Uiso  ? Co
   Co12       1.0     0.249731     0.001124     0.749992    Uiso  ? Co
   Co13       1.0     0.250250     0.505806     0.749985    Uiso  ? Co
   Co14       1.0     0.748860    -0.001196     0.750001    Uiso  ? Co
   Co15       1.0     0.748998     0.500027     0.750010    Uiso  ? Co
   Ni1        1.0     0.502573     0.506762     0.249988    Uiso  ? Ni
   Mn1        1.0     0.500938     0.504662     0.749997    Uiso  ? Mn
   Mn2        1.0    -0.000781     0.487191     0.249928    Uiso  ? Mn
   Mn3        1.0    -0.001942     0.495679     0.750053    Uiso  ? Mn
   Mn4        1.0     0.256998     0.009304     0.250024    Uiso  ? Mn
