
#======================================================================
# CRYSTAL DATA
#----------------------------------------------------------------------
data_VESTA_phase_1

_chemical_name_common                  'Sm1 Co5                               '
_cell_length_a                         10.146373
_cell_length_b                         5.045793
_cell_length_c                         7.813421
_cell_angle_alpha                      89.999748
_cell_angle_beta                       90.000092
_cell_angle_gamma                      119.821564
_cell_volume                           347.048465
_space_group_name_H-M_alt              'P 1'
_space_group_IT_number                 1

loop_
_space_group_symop_operation_xyz
   'x, y, z'

loop_
   _atom_site_label
   _atom_site_occupancy
   _atom_site_fract_x
   _atom_site_fract_y
   _atom_site_fract_z
   _atom_site_adp_type
   _atom_site_U_iso_or_equiv
   _atom_site_type_symbol
   Sm1        1.0     0.999994     0.999995     0.999053    Uiso  ? Sm
   Sm2        1.0     0.500005     0.000007     0.998875    Uiso  ? Sm
   Sm3        1.0    -0.000010    -0.000009     0.502015    Uiso  ? Sm
   Sm4        1.0     0.500012     1.000010     0.504504    Uiso  ? Sm
   Co1        1.0     0.323335     0.323297     0.501884    Uiso  ? Co
   Co2        1.0     0.676666     0.676697     0.501887    Uiso  ? Co
   Co3        1.0    -0.000003     0.499998     0.249700    Uiso  ? Co
   Co4        1.0     0.247852     0.000196     0.249121    Uiso  ? Co
   Co5        1.0     0.752150     0.999805     0.249127    Uiso  ? Co
   Co6        1.0     0.247834     0.495402     0.249135    Uiso  ? Co
   Co7        1.0     0.752168     0.504605     0.249141    Uiso  ? Co
   Co8        1.0     0.999993     0.499991     0.748680    Uiso  ? Co
   Co9        1.0     0.249737     0.999578     0.750622    Uiso  ? Co
   Co10       1.0     0.249741     0.499865     0.750606    Uiso  ? Co
   Co11       1.0     0.500005     0.500004     0.745008    Uiso  ? Co
   Co12       1.0     0.750261     0.000417     0.750624    Uiso  ? Co
   Co13       1.0     0.750257     0.500132     0.750609    Uiso  ? Co
   Mn1        1.0     0.500007     0.500007     0.257624    Uiso  ? Mn
   Fe1        1.0     0.167256     0.667251     0.500033    Uiso  ? Fe
   Fe2        1.0     0.832743     0.332749     0.500038    Uiso  ? Fe
   Fe3        1.0     0.166733     0.666706     0.999240    Uiso  ? Fe
   Fe4        1.0     0.833260     0.333288     0.999243    Uiso  ? Fe
   Fe5        1.0     0.668608     0.668621     0.996613    Uiso  ? Fe
   Fe6        1.0     0.331396     0.331389     0.996619    Uiso  ? Fe
