
#======================================================================
# CRYSTAL DATA
#----------------------------------------------------------------------
data_VESTA_phase_1

_chemical_name_common                  'Sm1 Co5                               '
_cell_length_a                         10.071898
_cell_length_b                         5.006963
_cell_length_c                         7.859593
_cell_angle_alpha                      90.000603
_cell_angle_beta                       90.063889
_cell_angle_gamma                      119.811081
_cell_volume                           343.905960
_space_group_name_H-M_alt              'P 1'
_space_group_IT_number                 1

loop_
_space_group_symop_operation_xyz
   'x, y, z'

loop_
   _atom_site_label
   _atom_site_occupancy
   _atom_site_fract_x
   _atom_site_fract_y
   _atom_site_fract_z
   _atom_site_adp_type
   _atom_site_U_iso_or_equiv
   _atom_site_type_symbol
   Sm1        1.0    -0.003150    -0.003159    -0.002736    Uiso  ? Sm
   Sm2        1.0     0.503433     0.003441    -0.003294    Uiso  ? Sm
   Sm3        1.0    -0.000482    -0.000486     0.502407    Uiso  ? Sm
   Sm4        1.0     0.500113     0.000147     0.503509    Uiso  ? Sm
   Co1        1.0     0.323428     0.323353    -0.000960    Uiso  ? Co
   Co2        1.0     0.673027     0.672954    -0.001457    Uiso  ? Co
   Co3        1.0     0.838695     0.338780    -0.000437    Uiso  ? Co
   Co4        1.0     0.328794     0.328831     0.501838    Uiso  ? Co
   Co5        1.0     0.670273     0.670192     0.501372    Uiso  ? Co
   Co6        1.0    -0.000866     0.499143     0.251450    Uiso  ? Co
   Co7        1.0     0.246934    -0.000531     0.249812    Uiso  ? Co
   Co8        1.0     0.753372     0.001764     0.248967    Uiso  ? Co
   Co9        1.0     0.246816     0.494000     0.249861    Uiso  ? Co
   Co10       1.0     0.753472     0.505456     0.248993    Uiso  ? Co
   Co11       1.0    -0.000642     0.499354     0.748450    Uiso  ? Co
   Co12       1.0     0.250755     0.001239     0.750302    Uiso  ? Co
   Co13       1.0     0.250753     0.500147     0.750277    Uiso  ? Co
   Co14       1.0     0.500480     0.500512     0.751372    Uiso  ? Co
   Co15       1.0     0.749363     0.000344     0.750318    Uiso  ? Co
   Co16       1.0     0.749426     0.498616     0.750268    Uiso  ? Co
   Mn1        1.0     0.500424     0.500449     0.248961    Uiso  ? Mn
   Fe1        1.0     0.167631     0.667768     0.500739    Uiso  ? Fe
   Fe2        1.0     0.832059     0.331893     0.500591    Uiso  ? Fe
   Fe3        1.0     0.165892     0.665792    -0.000602    Uiso  ? Fe
