
#======================================================================
# CRYSTAL DATA
#----------------------------------------------------------------------
data_VESTA_phase_1

_chemical_name_common                  'Sm1 Co5                               '
_cell_length_a                         10.113087
_cell_length_b                         5.031784
_cell_length_c                         7.827227
_cell_angle_alpha                      90.000153
_cell_angle_beta                       90.000099
_cell_angle_gamma                      119.826935
_cell_volume                           345.540524
_space_group_name_H-M_alt              'P 1'
_space_group_IT_number                 1

loop_
_space_group_symop_operation_xyz
   'x, y, z'

loop_
   _atom_site_label
   _atom_site_occupancy
   _atom_site_fract_x
   _atom_site_fract_y
   _atom_site_fract_z
   _atom_site_adp_type
   _atom_site_U_iso_or_equiv
   _atom_site_type_symbol
   Sm1        1.0     0.999984     0.999987     0.997470    Uiso  ? Sm
   Sm2        1.0     0.500011     1.000005     0.996860    Uiso  ? Sm
   Sm3        1.0    -0.000002     0.000001     0.502529    Uiso  ? Sm
   Sm4        1.0     0.500001     0.999997     0.503141    Uiso  ? Sm
   Co1        1.0     0.326421     0.326473     0.998762    Uiso  ? Co
   Co2        1.0     0.673561     0.673503     0.998765    Uiso  ? Co
   Co3        1.0     0.326409     0.326476     0.501229    Uiso  ? Co
   Co4        1.0     0.673580     0.673522     0.501234    Uiso  ? Co
   Co5        1.0     0.999994     0.499995     0.250001    Uiso  ? Co
   Co6        1.0     0.247427     0.000051     0.250012    Uiso  ? Co
   Co7        1.0     0.752577     0.999954     0.250008    Uiso  ? Co
   Co8        1.0     0.247360     0.494623     0.250002    Uiso  ? Co
   Co9        1.0     0.752647     0.505385     0.249999    Uiso  ? Co
   Co10       1.0    -0.000003     0.500000     0.749996    Uiso  ? Co
   Co11       1.0     0.251257     0.001186     0.749995    Uiso  ? Co
   Co12       1.0     0.251260     0.501167     0.749996    Uiso  ? Co
   Co13       1.0     0.500010     0.500006     0.749991    Uiso  ? Co
   Co14       1.0     0.748746     0.998823     0.750000    Uiso  ? Co
   Co15       1.0     0.748743     0.498837     0.750000    Uiso  ? Co
   Mn1        1.0     0.500006     0.500004     0.250010    Uiso  ? Mn
   Fe1        1.0     0.166468     0.666377     0.500805    Uiso  ? Fe
   Fe2        1.0     0.833539     0.333627     0.500810    Uiso  ? Fe
   Fe3        1.0     0.166467     0.666378     0.999195    Uiso  ? Fe
   Fe4        1.0     0.833536     0.333623     0.999189    Uiso  ? Fe
