
#======================================================================
# CRYSTAL DATA
#----------------------------------------------------------------------
data_VESTA_phase_1

_chemical_name_common                  'Sm1 Co5                               '
_cell_length_a                         10.065498
_cell_length_b                         4.980531
_cell_length_c                         7.866818
_cell_angle_alpha                      89.999023
_cell_angle_beta                       89.998871
_cell_angle_gamma                      119.667671
_cell_volume                           342.677268
_space_group_name_H-M_alt              'P 1'
_space_group_IT_number                 1

loop_
_space_group_symop_operation_xyz
   'x, y, z'

loop_
   _atom_site_label
   _atom_site_occupancy
   _atom_site_fract_x
   _atom_site_fract_y
   _atom_site_fract_z
   _atom_site_adp_type
   _atom_site_U_iso_or_equiv
   _atom_site_type_symbol
   Sm1        1.0     0.000023     0.000015    -0.002522    Uiso  ? Sm
   Sm2        1.0     0.499988    -0.000006    -0.004595    Uiso  ? Sm
   Sm3        1.0     0.000007    -0.000003     0.502531    Uiso  ? Sm
   Sm4        1.0     0.499987    -0.000014     0.502220    Uiso  ? Sm
   Co1        1.0     0.175433     0.675479    -0.000556    Uiso  ? Co
   Co2        1.0     0.316989     0.316684    -0.000547    Uiso  ? Co
   Co3        1.0     0.682981     0.683292    -0.000591    Uiso  ? Co
   Co4        1.0     0.824595     0.324540    -0.000553    Uiso  ? Co
   Co5        1.0     0.337288     0.337168     0.502117    Uiso  ? Co
   Co6        1.0     0.662734     0.662873     0.502148    Uiso  ? Co
   Co7        1.0    -0.000032     0.499983     0.246999    Uiso  ? Co
   Co8        1.0     0.245264    -0.001660     0.250868    Uiso  ? Co
   Co9        1.0     0.754770     0.001788     0.250887    Uiso  ? Co
   Co10       1.0     0.245281     0.491921     0.250824    Uiso  ? Co
   Co11       1.0     0.754747     0.508020     0.250836    Uiso  ? Co
   Co12       1.0     0.000027     0.500034     0.753755    Uiso  ? Co
   Co13       1.0     0.249698     0.000258     0.748382    Uiso  ? Co
   Co14       1.0     0.249752     0.499243     0.748398    Uiso  ? Co
   Co15       1.0     0.500020     0.500016     0.757246    Uiso  ? Co
   Co16       1.0     0.750273    -0.000360     0.748358    Uiso  ? Co
   Co17       1.0     0.750231     0.500791     0.748366    Uiso  ? Co
   Mn1        1.0     0.499956     0.499961     0.244014    Uiso  ? Mn
   Fe1        1.0     0.166492     0.666560     0.500725    Uiso  ? Fe
   Fe2        1.0     0.833497     0.333420     0.500689    Uiso  ? Fe
