
#======================================================================
# CRYSTAL DATA
#----------------------------------------------------------------------
data_VESTA_phase_1

_chemical_name_common                  'Sm12 Co42                             '
_cell_length_a                         4.995000
_cell_length_b                         5.031041
_cell_length_c                         36.379250
_cell_angle_alpha                      90.074005
_cell_angle_beta                       90.012222
_cell_angle_gamma                      119.742325
_cell_volume                           793.777802
_space_group_name_H-M_alt              'P 1'
_space_group_IT_number                 1

loop_
_space_group_symop_operation_xyz
   'x, y, z'

loop_
   _atom_site_label
   _atom_site_occupancy
   _atom_site_fract_x
   _atom_site_fract_y
   _atom_site_fract_z
   _atom_site_adp_type
   _atom_site_U_iso_or_equiv
   _atom_site_type_symbol
   Sm1        1.0     0.000040    -0.001042     0.948990    Uiso  ? Sm
   Sm2        1.0     0.331392     0.662622     0.719045    Uiso  ? Sm
   Sm3        1.0     0.667793     0.336231     0.281301    Uiso  ? Sm
   Sm4        1.0     0.000051    -0.000890     0.051271    Uiso  ? Sm
   Sm5        1.0     0.328892     0.658291     0.617219    Uiso  ? Sm
   Sm6        1.0     0.668541     0.338082     0.383544    Uiso  ? Sm
   Sm7        1.0     0.000510    -0.000139     0.852480    Uiso  ? Sm
   Sm8        1.0     0.332914     0.664660     0.815482    Uiso  ? Sm
   Sm9        1.0     0.668009     0.335566     0.184843    Uiso  ? Sm
   Sm10       1.0     0.000813     0.001140     0.147793    Uiso  ? Sm
   Sm11       1.0     0.340808     0.682901     0.516334    Uiso  ? Sm
   Sm12       1.0     0.670921     0.343268     0.479679    Uiso  ? Sm
   Co1        1.0     0.666794     0.332016     0.833911    Uiso  ? Co
   Co2        1.0     0.334624     0.668724     0.166418    Uiso  ? Co
   Co3        1.0     0.008026     0.017176     0.499573    Uiso  ? Co
   Co4        1.0    -0.012923    -0.021100     0.721848    Uiso  ? Co
   Co5        1.0     0.327744     0.654775     0.945683    Uiso  ? Co
   Co6        1.0     0.667297     0.334171     0.054488    Uiso  ? Co
   Co7        1.0    -0.010164    -0.019389     0.278289    Uiso  ? Co
   Co8        1.0     0.329643     0.660352     0.387397    Uiso  ? Co
   Co9        1.0     0.640038     0.281109     0.613274    Uiso  ? Co
   Co10       1.0     0.672223     0.342872     0.945923    Uiso  ? Co
   Co11       1.0     0.675703     0.346414     0.721965    Uiso  ? Co
   Co12       1.0     0.345757     0.691399     0.278139    Uiso  ? Co
   Co13       1.0     0.333139     0.664459     0.054383    Uiso  ? Co
   Co14       1.0     0.017510     0.035461     0.614182    Uiso  ? Co
   Co15       1.0     0.008228     0.016868     0.386315    Uiso  ? Co
   Co16       1.0     0.500259    -0.000506    -0.000214    Uiso  ? Co
   Co17       1.0     0.499960     0.499126     0.000250    Uiso  ? Co
   Co18       1.0     0.000366     0.499310     0.000297    Uiso  ? Co
   Co19       1.0     0.168875     0.338674     0.331164    Uiso  ? Co
   Co20       1.0     0.167743     0.836330     0.333112    Uiso  ? Co
   Co21       1.0     0.667749     0.836415     0.333134    Uiso  ? Co
   Co22       1.0     0.831014     0.662490     0.665461    Uiso  ? Co
   Co23       1.0     0.829690     0.162116     0.668534    Uiso  ? Co
   Co24       1.0     0.332000     0.161870     0.668713    Uiso  ? Co
   Co25       1.0     0.996340     0.497209     0.891967    Uiso  ? Co
   Co26       1.0     0.500142    -0.000551     0.892880    Uiso  ? Co
   Co27       1.0     0.501442     0.497417     0.891999    Uiso  ? Co
   Co28       1.0     0.333141     0.163758     0.775161    Uiso  ? Co
   Co29       1.0     0.830583     0.660592     0.776159    Uiso  ? Co
   Co30       1.0     0.830812     0.164134     0.775331    Uiso  ? Co
   Co31       1.0     0.665038     0.833518     0.224222    Uiso  ? Co
   Co32       1.0     0.167806     0.335458     0.225665    Uiso  ? Co
   Co33       1.0     0.168365     0.833563     0.224238    Uiso  ? Co
   Co34       1.0     0.002671     0.501375     0.108112    Uiso  ? Co
   Co35       1.0     0.499029     0.997383     0.107806    Uiso  ? Co
   Co36       1.0     0.499682     0.501281     0.108140    Uiso  ? Co
   Co37       1.0     0.164303     0.330049     0.440863    Uiso  ? Co
   Co38       1.0     0.168426     0.841325     0.440156    Uiso  ? Co
   Co39       1.0     0.671828     0.841656     0.440148    Uiso  ? Co
   Co40       1.0     0.322830     0.161388     0.558009    Uiso  ? Co
   Co41       1.0     0.837471     0.161373     0.558015    Uiso  ? Co
   Zn1        1.0     0.828111     0.657250     0.560909    Uiso  ? Zn
