
#======================================================================
# CRYSTAL DATA
#----------------------------------------------------------------------
data_VESTA_phase_1

_chemical_name_common                  'Sm8 Co28                              '
_cell_length_a                         4.994585
_cell_length_b                         5.039875
_cell_length_c                         24.266977
_cell_angle_alpha                      89.872238
_cell_angle_beta                       90.000000
_cell_angle_gamma                      119.703178
_cell_volume                           530.585270
_space_group_name_H-M_alt              'P 1'
_space_group_IT_number                 1

loop_
_space_group_symop_operation_xyz
   'x, y, z'

loop_
   _atom_site_label
   _atom_site_occupancy
   _atom_site_fract_x
   _atom_site_fract_y
   _atom_site_fract_z
   _atom_site_adp_type
   _atom_site_U_iso_or_equiv
   _atom_site_type_symbol
   Sm1        1.0     0.671308     0.342616     0.530291    Uiso  ? Sm
   Sm2        1.0     0.331761     0.663521     0.027434    Uiso  ? Sm
   Sm3        1.0     0.341272     0.682545     0.475488    Uiso  ? Sm
   Sm4        1.0     0.665017     0.330033     0.971982    Uiso  ? Sm
   Sm5        1.0     0.668451     0.336901     0.674180    Uiso  ? Sm
   Sm6        1.0     0.331859     0.663717     0.172004    Uiso  ? Sm
   Sm7        1.0     0.329986     0.659973     0.324414    Uiso  ? Sm
   Sm8        1.0     0.666817     0.333633     0.827315    Uiso  ? Sm
   Co1        1.0     0.008290     0.016580     0.500515    Uiso  ? Co
   Co2        1.0     0.998519     0.997038     0.999772    Uiso  ? Co
   Co3        1.0     0.008088     0.016176     0.670048    Uiso  ? Co
   Co4        1.0     0.990953     0.981905     0.167627    Uiso  ? Co
   Co5        1.0     0.018698     0.037396     0.329028    Uiso  ? Co
   Co6        1.0     0.989553     0.979106     0.831721    Uiso  ? Co
   Co7        1.0     0.641566     0.283131     0.330239    Uiso  ? Co
   Co8        1.0     0.344568     0.689136     0.832246    Uiso  ? Co
   Co9        1.0     0.329679     0.659359     0.668501    Uiso  ? Co
   Co10       1.0     0.673018     0.346036     0.167714    Uiso  ? Co
   Co11       1.0     0.667183     0.834358     0.749690    Uiso  ? Co
   Co12       1.0     0.831867     0.663733     0.252094    Uiso  ? Co
   Co13       1.0     0.830872     0.162675     0.247496    Uiso  ? Co
   Co14       1.0     0.167175     0.834358     0.749690    Uiso  ? Co
   Co15       1.0     0.167444     0.334888     0.752602    Uiso  ? Co
   Co16       1.0     0.331804     0.162675     0.247496    Uiso  ? Co
   Co17       1.0     0.672004     0.840673     0.589416    Uiso  ? Co
   Co18       1.0     0.168668     0.840673     0.589416    Uiso  ? Co
   Co19       1.0     0.164841     0.329682     0.588310    Uiso  ? Co
   Co20       1.0     0.833997     0.667994     0.086483    Uiso  ? Co
   Co21       1.0     0.832534     0.163585     0.087606    Uiso  ? Co
   Co22       1.0     0.331051     0.163585     0.087606    Uiso  ? Co
   Co23       1.0     0.323824     0.161644     0.413112    Uiso  ? Co
   Co24       1.0     0.837820     0.161644     0.413112    Uiso  ? Co
   Co25       1.0     0.164790     0.834626     0.912914    Uiso  ? Co
   Co26       1.0     0.669837     0.834626     0.912914    Uiso  ? Co
   Co27       1.0     0.166068     0.332136     0.910789    Uiso  ? Co
   Zn1        1.0     0.828821     0.657642     0.408735    Uiso  ? Zn
