
#======================================================================
# CRYSTAL DATA
#----------------------------------------------------------------------
data_VESTA_phase_1

_chemical_name_common                  'Sm1 Co5                               '
_cell_length_a                         9.980408
_cell_length_b                         4.935928
_cell_length_c                         7.943141
_cell_angle_alpha                      89.999847
_cell_angle_beta                       89.999840
_cell_angle_gamma                      119.624802
_cell_volume                           340.149339
_space_group_name_H-M_alt              'P 1'
_space_group_IT_number                 1

loop_
_space_group_symop_operation_xyz
   'x, y, z'

loop_
   _atom_site_label
   _atom_site_occupancy
   _atom_site_fract_x
   _atom_site_fract_y
   _atom_site_fract_z
   _atom_site_adp_type
   _atom_site_U_iso_or_equiv
   _atom_site_type_symbol
   Sm1        1.0     0.002066     0.022508     0.001103    Uiso  ? Sm
   Sm2        1.0     0.498314    -0.021312    -0.006708    Uiso  ? Sm
   Sm3        1.0     0.002047     0.022487     0.498897    Uiso  ? Sm
   Sm4        1.0     0.498329    -0.021292     0.506703    Uiso  ? Sm
   Co1        1.0     0.171358     0.695959    -0.002192    Uiso  ? Co
   Co2        1.0     0.331247     0.306281    -0.002681    Uiso  ? Co
   Co3        1.0     0.671990     0.649035    -0.000813    Uiso  ? Co
   Co4        1.0     0.823387     0.342111    -0.002076    Uiso  ? Co
   Co5        1.0     0.171391     0.696015     0.502190    Uiso  ? Co
   Co6        1.0     0.331255     0.306301     0.502672    Uiso  ? Co
   Co7        1.0     0.671980     0.649032     0.500819    Uiso  ? Co
   Co8        1.0     0.823358     0.342065     0.502082    Uiso  ? Co
   Co9        1.0     0.755089     0.504415     0.249986    Uiso  ? Co
   Co10       1.0     0.247069    -0.000427     0.750003    Uiso  ? Co
   Co11       1.0     0.751284     0.000872     0.750003    Uiso  ? Co
   Co12       1.0     0.752981     0.507320     0.750021    Uiso  ? Co
   Mn1        1.0     0.498886     0.491245     0.249991    Uiso  ? Mn
   Ni1        1.0     0.499669     0.490814     0.750001    Uiso  ? Ni
   Ni2        1.0     0.000602     0.507623     0.750016    Uiso  ? Ni
   Ni3        1.0    -0.000527     0.508061     0.250006    Uiso  ? Ni
   Ni4        1.0     0.248654     0.498492     0.750012    Uiso  ? Ni
   Ni5        1.0     0.250681     0.504036     0.249978    Uiso  ? Ni
   Ni6        1.0     0.249162    -0.003249     0.249991    Uiso  ? Ni
   Ni7        1.0     0.749728     0.001607     0.249996    Uiso  ? Ni
