
#======================================================================
# CRYSTAL DATA
#----------------------------------------------------------------------
data_VESTA_phase_1

_chemical_name_common                  'Sm1 Co5                               '
_cell_length_a                         9.934671
_cell_length_b                         4.965616
_cell_length_c                         7.951728
_cell_angle_alpha                      90.000290
_cell_angle_beta                       89.999748
_cell_angle_gamma                      119.759026
_cell_volume                           340.540058
_space_group_name_H-M_alt              'P 1'
_space_group_IT_number                 1

loop_
_space_group_symop_operation_xyz
   'x, y, z'

loop_
   _atom_site_label
   _atom_site_occupancy
   _atom_site_fract_x
   _atom_site_fract_y
   _atom_site_fract_z
   _atom_site_adp_type
   _atom_site_U_iso_or_equiv
   _atom_site_type_symbol
   Sm1        1.0     0.000534     0.026710     0.000314    Uiso  ? Sm
   Sm2        1.0     0.499585     0.974548     0.992813    Uiso  ? Sm
   Sm3        1.0     0.000550     0.026728     0.499686    Uiso  ? Sm
   Sm4        1.0     0.499572     0.974533     0.507187    Uiso  ? Sm
   Co1        1.0     0.170973     0.699386     0.998243    Uiso  ? Co
   Co2        1.0     0.330337     0.300740     0.996830    Uiso  ? Co
   Co3        1.0     0.669383     0.637077     0.000667    Uiso  ? Co
   Co4        1.0     0.827407     0.356363     0.999007    Uiso  ? Co
   Co5        1.0     0.170965     0.699420     0.501754    Uiso  ? Co
   Co6        1.0     0.330355     0.300730     0.503165    Uiso  ? Co
   Co7        1.0     0.669384     0.637065     0.499334    Uiso  ? Co
   Co8        1.0     0.827404     0.356371     0.500994    Uiso  ? Co
   Co9        1.0     0.754646     0.503112     0.250009    Uiso  ? Co
   Co10       1.0     0.246444     0.998607     0.749983    Uiso  ? Co
   Co11       1.0     0.752926     0.506188     0.749991    Uiso  ? Co
   Mn1        1.0     0.499530     0.490509     0.250021    Uiso  ? Mn
   Ni1        1.0     0.500456     0.489064     0.749997    Uiso  ? Ni
   Ni2        1.0     0.999382     0.508651     0.749992    Uiso  ? Ni
   Ni3        1.0     0.000087     0.510223     0.250007    Uiso  ? Ni
   Ni4        1.0     0.248746     0.498561     0.749981    Uiso  ? Ni
   Ni5        1.0     0.251330     0.504977     0.250013    Uiso  ? Ni
   Ni6        1.0     0.249977     0.997746     0.250010    Uiso  ? Ni
   Ni7        1.0     0.749849     0.003230     0.250007    Uiso  ? Ni
   Ni8        1.0     0.750176     0.999461     0.749994    Uiso  ? Ni
