
#======================================================================
# CRYSTAL DATA
#----------------------------------------------------------------------
data_VESTA_phase_1

_chemical_name_common                  'Sm1 Co5                               '
_cell_length_a                         10.106661
_cell_length_b                         4.882288
_cell_length_c                         7.921946
_cell_angle_alpha                      89.999756
_cell_angle_beta                       90.000809
_cell_angle_gamma                      119.202713
_cell_volume                           341.214097
_space_group_name_H-M_alt              'P 1'
_space_group_IT_number                 1

loop_
_space_group_symop_operation_xyz
   'x, y, z'

loop_
   _atom_site_label
   _atom_site_occupancy
   _atom_site_fract_x
   _atom_site_fract_y
   _atom_site_fract_z
   _atom_site_adp_type
   _atom_site_U_iso_or_equiv
   _atom_site_type_symbol
   Sm1        1.0     0.001230     0.012319    -0.003511    Uiso  ? Sm
   Sm2        1.0     0.498833    -0.012131    -0.008032    Uiso  ? Sm
   Sm3        1.0     0.001236     0.012331     0.503501    Uiso  ? Sm
   Sm4        1.0     0.498823    -0.012143     0.508026    Uiso  ? Sm
   Co1        1.0     0.178104     0.693781    -0.000158    Uiso  ? Co
   Co2        1.0     0.323764     0.310966     0.002459    Uiso  ? Co
   Co3        1.0     0.680650     0.671292     0.000537    Uiso  ? Co
   Co4        1.0     0.819036     0.326497    -0.000912    Uiso  ? Co
   Co5        1.0     0.178114     0.693834     0.500159    Uiso  ? Co
   Co6        1.0     0.323805     0.310955     0.497551    Uiso  ? Co
   Co7        1.0     0.680580     0.671238     0.499456    Uiso  ? Co
   Co8        1.0     0.819048     0.326490     0.500916    Uiso  ? Co
   Co9        1.0     0.244207    -0.005229     0.249999    Uiso  ? Co
   Co10       1.0     0.753353     0.000576     0.250003    Uiso  ? Co
   Co11       1.0     0.245096     0.494221     0.250005    Uiso  ? Co
   Co12       1.0     0.754697     0.505108     0.250001    Uiso  ? Co
   Co13       1.0     0.248587     0.000588     0.750012    Uiso  ? Co
   Co14       1.0     0.750324     0.002060     0.750000    Uiso  ? Co
   Co15       1.0     0.751485     0.503087     0.749992    Uiso  ? Co
   Mn1        1.0     0.499413     0.491793     0.249984    Uiso  ? Mn
   Ni1        1.0     0.499151     0.493502     0.750016    Uiso  ? Ni
   Ni2        1.0     0.001343     0.507437     0.749994    Uiso  ? Ni
   Ni3        1.0    -0.000616     0.501825     0.250006    Uiso  ? Ni
   Ni4        1.0     0.249738     0.499601     0.749996    Uiso  ? Ni
