
#======================================================================
# CRYSTAL DATA
#----------------------------------------------------------------------
data_VESTA_phase_1

_chemical_name_common                  'Sm1 Co5                               '
_cell_length_a                         10.047334
_cell_length_b                         4.910820
_cell_length_c                         7.936352
_cell_angle_alpha                      90.000076
_cell_angle_beta                       89.999939
_cell_angle_gamma                      119.703018
_cell_volume                           340.132674
_space_group_name_H-M_alt              'P 1'
_space_group_IT_number                 1

loop_
_space_group_symop_operation_xyz
   'x, y, z'

loop_
   _atom_site_label
   _atom_site_occupancy
   _atom_site_fract_x
   _atom_site_fract_y
   _atom_site_fract_z
   _atom_site_adp_type
   _atom_site_U_iso_or_equiv
   _atom_site_type_symbol
   Sm1        1.0     0.003631     0.017302    -0.000474    Uiso  ? Sm
   Sm2        1.0     0.497539    -0.016188    -0.007189    Uiso  ? Sm
   Sm3        1.0     0.003631     0.017312     0.500475    Uiso  ? Sm
   Sm4        1.0     0.497534    -0.016206     0.507190    Uiso  ? Sm
   Co1        1.0     0.172635     0.692545    -0.002018    Uiso  ? Co
   Co2        1.0     0.330238     0.308863    -0.002765    Uiso  ? Co
   Co3        1.0     0.674874     0.665405     0.001126    Uiso  ? Co
   Co4        1.0     0.819556     0.328878    -0.001406    Uiso  ? Co
   Co5        1.0     0.172632     0.692541     0.502016    Uiso  ? Co
   Co6        1.0     0.330234     0.308849     0.502766    Uiso  ? Co
   Co7        1.0     0.674868     0.665382     0.498872    Uiso  ? Co
   Co8        1.0     0.819550     0.328899     0.501407    Uiso  ? Co
   Co9        1.0     0.753784     0.002132     0.250002    Uiso  ? Co
   Co10       1.0     0.755066     0.507137     0.249995    Uiso  ? Co
   Co11       1.0     0.247335    -0.000882     0.750001    Uiso  ? Co
   Co12       1.0     0.751449     0.001114     0.750000    Uiso  ? Co
   Co13       1.0     0.752376     0.506215     0.750005    Uiso  ? Co
   Mn1        1.0     0.496509     0.491049     0.249999    Uiso  ? Mn
   Ni1        1.0     0.500067     0.492743     0.750002    Uiso  ? Ni
   Ni2        1.0     0.000449     0.505670     0.750001    Uiso  ? Ni
   Ni3        1.0    -0.001068     0.503459     0.249997    Uiso  ? Ni
   Ni4        1.0     0.248539     0.498129     0.750002    Uiso  ? Ni
   Ni5        1.0     0.249661     0.503174     0.249999    Uiso  ? Ni
   Ni6        1.0     0.248912    -0.003523     0.249998    Uiso  ? Ni
