
#======================================================================
# CRYSTAL DATA
#----------------------------------------------------------------------
data_VESTA_phase_1

_chemical_name_common                  'Sm12 Co42'
_cell_length_a                         5.007438
_cell_length_b                         5.007438
_cell_length_c                         36.425339
_cell_angle_alpha                      90.000000
_cell_angle_beta                       90.000000
_cell_angle_gamma                      120.000000
_cell_volume                           790.979857
_space_group_name_H-M_alt              'P 1'
_space_group_IT_number                 1

loop_
_space_group_symop_operation_xyz
   'x, y, z'

loop_
   _atom_site_label
   _atom_site_occupancy
   _atom_site_fract_x
   _atom_site_fract_y
   _atom_site_fract_z
   _atom_site_adp_type
   _atom_site_U_iso_or_equiv
   _atom_site_type_symbol
   Sm1        1.0     0.000000     0.000000     0.948683    Uiso  ? Sm
   Sm2        1.0     0.333333     0.666667     0.717996    Uiso  ? Sm
   Sm3        1.0     0.666667     0.333333     0.281721    Uiso  ? Sm
   Sm4        1.0     0.000000     0.000000     0.051245    Uiso  ? Sm
   Sm5        1.0     0.333333     0.666667     0.615478    Uiso  ? Sm
   Sm6        1.0     0.666667     0.333333     0.384026    Uiso  ? Sm
   Sm7        1.0     0.000000     0.000000     0.851948    Uiso  ? Sm
   Sm8        1.0     0.333333     0.666667     0.814758    Uiso  ? Sm
   Sm9        1.0     0.666667     0.333333     0.185149    Uiso  ? Sm
   Sm10       1.0     0.000000     0.000000     0.147878    Uiso  ? Sm
   Sm11       1.0     0.333333     0.666667     0.518815    Uiso  ? Sm
   Sm12       1.0     0.666667     0.333333     0.481518    Uiso  ? Sm
   Co1        1.0     0.666667     0.333333     0.833375    Uiso  ? Co
   Co2        1.0     0.333333     0.666667     0.166670    Uiso  ? Co
   Co3        1.0     0.000000     0.000000     0.500265    Uiso  ? Co
   Co4        1.0     0.000000     0.000000     0.721191    Uiso  ? Co
   Co5        1.0     0.333333     0.666667     0.945533    Uiso  ? Co
   Co6        1.0     0.666667     0.333333     0.054431    Uiso  ? Co
   Co7        1.0     0.000000     0.000000     0.279573    Uiso  ? Co
   Co8        1.0     0.666667     0.333333     0.612403    Uiso  ? Co
   Co9        1.0     0.666667     0.333333     0.945639    Uiso  ? Co
   Co10       1.0     0.666667     0.333333     0.721014    Uiso  ? Co
   Co11       1.0     0.333333     0.666667     0.277831    Uiso  ? Co
   Co12       1.0     0.333333     0.666667     0.054343    Uiso  ? Co
   Co13       1.0     0.000000     0.000000     0.612364    Uiso  ? Co
   Co14       1.0     0.000000     0.000000     0.387626    Uiso  ? Co
   Co15       1.0     0.499984    -0.000033    -0.000027    Uiso  ? Co
   Co16       1.0     0.499984     0.500016    -0.000027    Uiso  ? Co
   Co17       1.0     0.000033     0.500016    -0.000027    Uiso  ? Co
   Co18       1.0     0.167257     0.334513     0.332720    Uiso  ? Co
   Co19       1.0     0.167257     0.832743     0.332720    Uiso  ? Co
   Co20       1.0     0.665487     0.832743     0.332720    Uiso  ? Co
   Co21       1.0     0.833380     0.666761     0.666732    Uiso  ? Co
   Co22       1.0     0.833380     0.166620     0.666732    Uiso  ? Co
   Co23       1.0     0.333239     0.166620     0.666732    Uiso  ? Co
   Co24       1.0     0.997904     0.498952     0.891930    Uiso  ? Co
   Co25       1.0     0.501048     0.002096     0.891930    Uiso  ? Co
   Co26       1.0     0.501048     0.498952     0.891930    Uiso  ? Co
   Co27       1.0     0.335588     0.167794     0.774772    Uiso  ? Co
   Co28       1.0     0.832206     0.664412     0.774772    Uiso  ? Co
   Co29       1.0     0.832206     0.167794     0.774772    Uiso  ? Co
   Co30       1.0     0.667123     0.833561     0.224931    Uiso  ? Co
   Co31       1.0     0.166439     0.332877     0.224931    Uiso  ? Co
   Co32       1.0     0.166439     0.833561     0.224931    Uiso  ? Co
   Co33       1.0     0.002016     0.501008     0.108017    Uiso  ? Co
   Co34       1.0     0.498992     0.997984     0.108017    Uiso  ? Co
   Co35       1.0     0.498992     0.501008     0.108017    Uiso  ? Co
   Co36       1.0     0.331940     0.165970     0.558769    Uiso  ? Co
   Co37       1.0     0.834030     0.668060     0.558769    Uiso  ? Co
   Co38       1.0     0.834030     0.165970     0.558769    Uiso  ? Co
   Co39       1.0     0.670169     0.835085     0.442293    Uiso  ? Co
   Co40       1.0     0.164915     0.329831     0.442293    Uiso  ? Co
   Co41       1.0     0.164915     0.835085     0.442293    Uiso  ? Co
   Cu1        1.0     0.333333     0.666667     0.388114    Uiso  ? Cu
