
#======================================================================
# CRYSTAL DATA
#----------------------------------------------------------------------
data_VESTA_phase_1

_chemical_name_common                  'Sm12 Co42'
_cell_length_a                         5.005334
_cell_length_b                         5.005334
_cell_length_c                         36.488159
_cell_angle_alpha                      90.000000
_cell_angle_beta                       90.000000
_cell_angle_gamma                      120.000000
_cell_volume                           791.678214
_space_group_name_H-M_alt              'P 1'
_space_group_IT_number                 1

loop_
_space_group_symop_operation_xyz
   'x, y, z'

loop_
   _atom_site_label
   _atom_site_occupancy
   _atom_site_fract_x
   _atom_site_fract_y
   _atom_site_fract_z
   _atom_site_adp_type
   _atom_site_U_iso_or_equiv
   _atom_site_type_symbol
   Sm1        1.0     0.000000     0.000000     0.947929    Uiso  ? Sm
   Sm2        1.0     0.333333     0.666667     0.717890    Uiso  ? Sm
   Sm3        1.0     0.666667     0.333333     0.283233    Uiso  ? Sm
   Sm4        1.0     0.000000     0.000000     0.050101    Uiso  ? Sm
   Sm5        1.0     0.333333     0.666667     0.615443    Uiso  ? Sm
   Sm6        1.0     0.666667     0.333333     0.385405    Uiso  ? Sm
   Sm7        1.0     0.000000     0.000000     0.851432    Uiso  ? Sm
   Sm8        1.0     0.333333     0.666667     0.814405    Uiso  ? Sm
   Sm9        1.0     0.666667     0.333333     0.186934    Uiso  ? Sm
   Sm10       1.0     0.000000     0.000000     0.146400    Uiso  ? Sm
   Sm11       1.0     0.333333     0.666667     0.518928    Uiso  ? Sm
   Sm12       1.0     0.666667     0.333333     0.481901    Uiso  ? Sm
   Co1        1.0     0.666667     0.333333     0.832907    Uiso  ? Co
   Co2        1.0     0.000000     0.000000     0.500426    Uiso  ? Co
   Co3        1.0     0.000000     0.000000     0.721053    Uiso  ? Co
   Co4        1.0     0.333333     0.666667     0.944725    Uiso  ? Co
   Co5        1.0     0.666667     0.333333     0.053584    Uiso  ? Co
   Co6        1.0     0.000000     0.000000     0.279749    Uiso  ? Co
   Co7        1.0     0.333333     0.666667     0.388609    Uiso  ? Co
   Co8        1.0     0.666667     0.333333     0.612280    Uiso  ? Co
   Co9        1.0     0.666667     0.333333     0.944734    Uiso  ? Co
   Co10       1.0     0.666667     0.333333     0.720938    Uiso  ? Co
   Co11       1.0     0.333333     0.666667     0.280550    Uiso  ? Co
   Co12       1.0     0.333333     0.666667     0.052784    Uiso  ? Co
   Co13       1.0     0.000000     0.000000     0.612395    Uiso  ? Co
   Co14       1.0     0.000000     0.000000     0.388600    Uiso  ? Co
   Co15       1.0     0.500326     0.000653    -0.001072    Uiso  ? Co
   Co16       1.0     0.500326     0.499674    -0.001072    Uiso  ? Co
   Co17       1.0    -0.000653     0.499674    -0.001072    Uiso  ? Co
   Co18       1.0     0.166340     0.332680     0.334405    Uiso  ? Co
   Co19       1.0     0.166340     0.833660     0.334405    Uiso  ? Co
   Co20       1.0     0.667320     0.833660     0.334405    Uiso  ? Co
   Co21       1.0     0.833333     0.666667     0.666667    Uiso  ? Co
   Co22       1.0     0.833333     0.166667     0.666667    Uiso  ? Co
   Co23       1.0     0.333333     0.166667     0.666667    Uiso  ? Co
   Co24       1.0     0.997924     0.498962     0.891265    Uiso  ? Co
   Co25       1.0     0.501038     0.002076     0.891265    Uiso  ? Co
   Co26       1.0     0.501038     0.498962     0.891265    Uiso  ? Co
   Co27       1.0     0.335328     0.167664     0.774556    Uiso  ? Co
   Co28       1.0     0.832336     0.664672     0.774556    Uiso  ? Co
   Co29       1.0     0.832336     0.167664     0.774556    Uiso  ? Co
   Co30       1.0     0.665485     0.832742     0.226665    Uiso  ? Co
   Co31       1.0     0.167258     0.334515     0.226665    Uiso  ? Co
   Co32       1.0     0.167258     0.832742     0.226665    Uiso  ? Co
   Co33       1.0     0.001182     0.500591     0.106668    Uiso  ? Co
   Co34       1.0     0.499409    -0.001182     0.106668    Uiso  ? Co
   Co35       1.0     0.499409     0.500591     0.106668    Uiso  ? Co
   Co36       1.0     0.331338     0.165669     0.558778    Uiso  ? Co
   Co37       1.0     0.834331     0.668662     0.558778    Uiso  ? Co
   Co38       1.0     0.834331     0.165669     0.558778    Uiso  ? Co
   Co39       1.0     0.668743     0.834371     0.442068    Uiso  ? Co
   Co40       1.0     0.165629     0.331257     0.442068    Uiso  ? Co
   Co41       1.0     0.165629     0.834371     0.442068    Uiso  ? Co
   Cu1        1.0     0.333333     0.666667     0.166667    Uiso  ? Cu
