
#======================================================================
# CRYSTAL DATA
#----------------------------------------------------------------------
data_VESTA_phase_1

_chemical_name_common                  'Sm12 Co42'
_cell_length_a                         5.030951
_cell_length_b                         4.986678
_cell_length_c                         36.352943
_cell_angle_alpha                      90.000000
_cell_angle_beta                       90.000000
_cell_angle_gamma                      120.000000
_cell_volume                           789.826311
_space_group_name_H-M_alt              'P 1'
_space_group_IT_number                 1

loop_
_space_group_symop_operation_xyz
   'x, y, z'

loop_
   _atom_site_label
   _atom_site_occupancy
   _atom_site_fract_x
   _atom_site_fract_y
   _atom_site_fract_z
   _atom_site_adp_type
   _atom_site_U_iso_or_equiv
   _atom_site_type_symbol
   Sm1        1.0    -0.000319    -0.000159     0.948700    Uiso  ? Sm
   Sm2        1.0     0.333757     0.666879     0.718170    Uiso  ? Sm
   Sm3        1.0     0.666002     0.333001     0.281717    Uiso  ? Sm
   Sm4        1.0    -0.000029    -0.000014     0.051197    Uiso  ? Sm
   Sm5        1.0     0.335189     0.667594     0.615713    Uiso  ? Sm
   Sm6        1.0     0.661318     0.330659     0.384014    Uiso  ? Sm
   Sm7        1.0    -0.000258    -0.000129     0.851992    Uiso  ? Sm
   Sm8        1.0     0.334122     0.667061     0.814879    Uiso  ? Sm
   Sm9        1.0     0.666360     0.333180     0.185047    Uiso  ? Sm
   Sm10       1.0     0.001229     0.000615     0.147936    Uiso  ? Sm
   Sm11       1.0     0.339251     0.669626     0.519267    Uiso  ? Sm
   Sm12       1.0     0.674205     0.337102     0.482130    Uiso  ? Sm
   Co1        1.0     0.666908     0.333454     0.833403    Uiso  ? Co
   Co2        1.0     0.333569     0.666784     0.166519    Uiso  ? Co
   Co3        1.0     0.012354     0.006177     0.499860    Uiso  ? Co
   Co4        1.0    -0.004735    -0.002368     0.721244    Uiso  ? Co
   Co5        1.0     0.339333     0.669667     0.945468    Uiso  ? Co
   Co6        1.0     0.660878     0.330439     0.054436    Uiso  ? Co
   Co7        1.0    -0.015896    -0.007948     0.278878    Uiso  ? Co
   Co8        1.0     0.290108     0.645054     0.387433    Uiso  ? Co
   Co9        1.0     0.673649     0.336824     0.612010    Uiso  ? Co
   Co10       1.0     0.660121     0.330060     0.945619    Uiso  ? Co
   Co11       1.0     0.672691     0.336346     0.721328    Uiso  ? Co
   Co12       1.0     0.347777     0.673888     0.278741    Uiso  ? Co
   Co13       1.0     0.339255     0.669627     0.054245    Uiso  ? Co
   Co14       1.0    -0.001911    -0.000955     0.612780    Uiso  ? Co
   Co15       1.0     0.031554     0.015777     0.386814    Uiso  ? Co
   Co16       1.0     0.499765    -0.000080    -0.000056    Uiso  ? Co
   Co17       1.0     0.499765     0.499845    -0.000056    Uiso  ? Co
   Co18       1.0    -0.000087     0.499957    -0.000108    Uiso  ? Co
   Co19       1.0     0.165597     0.334059     0.332293    Uiso  ? Co
   Co20       1.0     0.165597     0.831539     0.332293    Uiso  ? Co
   Co21       1.0     0.666401     0.833201     0.335106    Uiso  ? Co
   Co22       1.0     0.833310     0.666499     0.666865    Uiso  ? Co
   Co23       1.0     0.833310     0.166811     0.666865    Uiso  ? Co
   Co24       1.0     0.334750     0.167375     0.666889    Uiso  ? Co
   Co25       1.0     0.998646     0.499323     0.892340    Uiso  ? Co
   Co26       1.0     0.501525     0.002624     0.891668    Uiso  ? Co
   Co27       1.0     0.501525     0.498901     0.891668    Uiso  ? Co
   Co28       1.0     0.334895     0.167448     0.774566    Uiso  ? Co
   Co29       1.0     0.832613     0.664693     0.775128    Uiso  ? Co
   Co30       1.0     0.832613     0.167920     0.775128    Uiso  ? Co
   Co31       1.0     0.664303     0.832151     0.224594    Uiso  ? Co
   Co32       1.0     0.166697     0.334968     0.225298    Uiso  ? Co
   Co33       1.0     0.166697     0.831729     0.225298    Uiso  ? Co
   Co34       1.0     0.001083     0.500541     0.107557    Uiso  ? Co
   Co35       1.0     0.498689     0.997046     0.108206    Uiso  ? Co
   Co36       1.0     0.498689     0.501643     0.108206    Uiso  ? Co
   Co37       1.0     0.331815     0.165907     0.559150    Uiso  ? Co
   Co38       1.0     0.840331     0.671545     0.558598    Uiso  ? Co
   Co39       1.0     0.840331     0.168786     0.558598    Uiso  ? Co
   Co40       1.0     0.158631     0.324556     0.442135    Uiso  ? Co
   Co41       1.0     0.158631     0.834075     0.442135    Uiso  ? Co
   Cu1        1.0     0.657395     0.828698     0.440092    Uiso  ? Cu
