
#======================================================================
# CRYSTAL DATA
#----------------------------------------------------------------------
data_VESTA_phase_1

_chemical_name_common                  'Sm8 Co28'
_cell_length_a                         5.006747
_cell_length_b                         5.006747
_cell_length_c                         24.317373
_cell_angle_alpha                      90.000000
_cell_angle_beta                       90.000000
_cell_angle_gamma                      120.000000
_cell_volume                           527.908468
_space_group_name_H-M_alt              'P 1'
_space_group_IT_number                 1

loop_
_space_group_symop_operation_xyz
   'x, y, z'

loop_
   _atom_site_label
   _atom_site_occupancy
   _atom_site_fract_x
   _atom_site_fract_y
   _atom_site_fract_z
   _atom_site_adp_type
   _atom_site_U_iso_or_equiv
   _atom_site_type_symbol
   Sm1        1.0     0.666667     0.333333     0.528162    Uiso  ? Sm
   Sm2        1.0     0.333333     0.666667     0.027791    Uiso  ? Sm
   Sm3        1.0     0.333333     0.666667     0.472193    Uiso  ? Sm
   Sm4        1.0     0.666667     0.333333     0.972223    Uiso  ? Sm
   Sm5        1.0     0.666667     0.333333     0.673316    Uiso  ? Sm
   Sm6        1.0     0.333333     0.666667     0.172611    Uiso  ? Sm
   Sm7        1.0     0.333333     0.666667     0.325988    Uiso  ? Sm
   Sm8        1.0     0.666667     0.333333     0.827025    Uiso  ? Sm
   Co1        1.0     0.000000     0.000000     0.500275    Uiso  ? Co
   Co2        1.0     0.000000     0.000000     0.999441    Uiso  ? Co
   Co3        1.0     0.000000     0.000000     0.668098    Uiso  ? Co
   Co4        1.0     0.000000     0.000000     0.169261    Uiso  ? Co
   Co5        1.0     0.000000     0.000000     0.331699    Uiso  ? Co
   Co6        1.0     0.000000     0.000000     0.831920    Uiso  ? Co
   Co7        1.0     0.333333     0.666667     0.831444    Uiso  ? Co
   Co8        1.0     0.333333     0.666667     0.668924    Uiso  ? Co
   Co9        1.0     0.666667     0.333333     0.166705    Uiso  ? Co
   Co10       1.0     0.668108     0.834054     0.750118    Uiso  ? Co
   Co11       1.0     0.833329     0.666659     0.249081    Uiso  ? Co
   Co12       1.0     0.833329     0.166671     0.249081    Uiso  ? Co
   Co13       1.0     0.165946     0.834054     0.750118    Uiso  ? Co
   Co14       1.0     0.165946     0.331892     0.750118    Uiso  ? Co
   Co15       1.0     0.333341     0.166671     0.249081    Uiso  ? Co
   Co16       1.0     0.667432     0.833716     0.588102    Uiso  ? Co
   Co17       1.0     0.166284     0.833716     0.588102    Uiso  ? Co
   Co18       1.0     0.166284     0.332568     0.588102    Uiso  ? Co
   Co19       1.0     0.835642     0.671283     0.087492    Uiso  ? Co
   Co20       1.0     0.835642     0.164358     0.087492    Uiso  ? Co
   Co21       1.0     0.328717     0.164358     0.087492    Uiso  ? Co
   Co22       1.0     0.329928     0.164964     0.413402    Uiso  ? Co
   Co23       1.0     0.835036     0.670071     0.413402    Uiso  ? Co
   Co24       1.0     0.835036     0.164964     0.413402    Uiso  ? Co
   Co25       1.0     0.165880     0.834120     0.912096    Uiso  ? Co
   Co26       1.0     0.668240     0.834120     0.912096    Uiso  ? Co
   Co27       1.0     0.165880     0.331760     0.912096    Uiso  ? Co
   Cu1        1.0     0.666667     0.333333     0.332053    Uiso  ? Cu
