
#======================================================================
# CRYSTAL DATA
#----------------------------------------------------------------------
data_VESTA_phase_1

_chemical_name_common                  'Sm1 Co5                               '
_cell_length_a                         10.094595
_cell_length_b                         5.131635
_cell_length_c                         7.940676
_cell_angle_alpha                      90.000381
_cell_angle_beta                       89.999901
_cell_angle_gamma                      120.157005
_cell_volume                           355.666926
_space_group_name_H-M_alt              'P 1'
_space_group_IT_number                 1

loop_
_space_group_symop_operation_xyz
   'x, y, z'

loop_
   _atom_site_label
   _atom_site_occupancy
   _atom_site_fract_x
   _atom_site_fract_y
   _atom_site_fract_z
   _atom_site_adp_type
   _atom_site_U_iso_or_equiv
   _atom_site_type_symbol
   Sm1        1.0     0.000588     0.979381     0.000005    Uiso  ? Sm
   Sm2        1.0     0.498706     0.021520     0.000002    Uiso  ? Sm
   Sm3        1.0     0.999444     0.988491     0.500000    Uiso  ? Sm
   Sm4        1.0     0.499975     0.011772     0.499997    Uiso  ? Sm
   Co1        1.0     0.152389     0.602143     0.000003    Uiso  ? Co
   Co2        1.0     0.344587     0.397182     0.000001    Uiso  ? Co
   Co3        1.0     0.836964     0.319975     0.000006    Uiso  ? Co
   Co4        1.0     0.834813     0.327255     0.499998    Uiso  ? Co
   Co5        1.0     0.000117     0.482996     0.251304    Uiso  ? Co
   Co6        1.0     0.500687     0.512819     0.251266    Uiso  ? Co
   Co7        1.0     0.751389     0.997357     0.250403    Uiso  ? Co
   Co8        1.0     0.249734     0.499689     0.254059    Uiso  ? Co
   Co9        1.0     0.000116     0.482988     0.748700    Uiso  ? Co
   Co10       1.0     0.249734     0.499692     0.745946    Uiso  ? Co
   Co11       1.0     0.500689     0.512828     0.748731    Uiso  ? Co
   Co12       1.0     0.751388     0.997355     0.749594    Uiso  ? Co
   Fe1        1.0     0.664129     0.683427     0.499995    Uiso  ? Fe
   Fe2        1.0     0.337910     0.354185     0.500002    Uiso  ? Fe
   Fe3        1.0     0.161230     0.646135     0.499996    Uiso  ? Fe
   Fe4        1.0     0.662640     0.691572    -0.000002    Uiso  ? Fe
   Mn1        1.0     0.751646     0.495751     0.248867    Uiso  ? Mn
   Mn2        1.0     0.751646     0.495748     0.751129    Uiso  ? Mn
   Mn3        1.0     0.249739    -0.000130     0.762655    Uiso  ? Mn
   Mn4        1.0     0.249740    -0.000130     0.237343    Uiso  ? Mn
