
#======================================================================
# CRYSTAL DATA
#----------------------------------------------------------------------
data_VESTA_phase_1

_chemical_name_common                  'Sm1 Co5                               '
_cell_length_a                         10.104794
_cell_length_b                         5.103727
_cell_length_c                         7.894175
_cell_angle_alpha                      89.992249
_cell_angle_beta                       90.001045
_cell_angle_gamma                      120.562653
_cell_volume                           350.559655
_space_group_name_H-M_alt              'P 1'
_space_group_IT_number                 1

loop_
_space_group_symop_operation_xyz
   'x, y, z'

loop_
   _atom_site_label
   _atom_site_occupancy
   _atom_site_fract_x
   _atom_site_fract_y
   _atom_site_fract_z
   _atom_site_adp_type
   _atom_site_U_iso_or_equiv
   _atom_site_type_symbol
   Sm1        1.0     0.002804     0.972504     0.004384    Uiso  ? Sm
   Sm2        1.0     0.498039     0.025266     0.004054    Uiso  ? Sm
   Sm3        1.0     0.998621     0.997640     0.498548    Uiso  ? Sm
   Sm4        1.0     0.500032     0.004328     0.498246    Uiso  ? Sm
   Co1        1.0     0.159701     0.615363     0.001021    Uiso  ? Co
   Co2        1.0     0.341825     0.383075     0.001578    Uiso  ? Co
   Co3        1.0     0.653796     0.706831     0.999557    Uiso  ? Co
   Co4        1.0     0.846622     0.290620     0.999764    Uiso  ? Co
   Co5        1.0     0.833137     0.343938     0.500471    Uiso  ? Co
   Co6        1.0     0.000685     0.488528     0.251004    Uiso  ? Co
   Co7        1.0     0.250223     0.000384     0.242740    Uiso  ? Co
   Co8        1.0     0.499633     0.509541     0.251779    Uiso  ? Co
   Co9        1.0     0.750581     0.998590     0.254421    Uiso  ? Co
   Co10       1.0     0.249643     0.500057     0.253315    Uiso  ? Co
   Co11       1.0     0.001083     0.484621     0.748207    Uiso  ? Co
   Co12       1.0     0.250056     0.499878     0.745404    Uiso  ? Co
   Co13       1.0     0.498989     0.513288     0.747307    Uiso  ? Co
   Co14       1.0     0.750591     0.999496     0.745127    Uiso  ? Co
   Fe1        1.0     0.663822     0.669797     0.499722    Uiso  ? Fe
   Fe2        1.0     0.332390     0.333657     0.495865    Uiso  ? Fe
   Fe3        1.0     0.165815     0.665741     0.496202    Uiso  ? Fe
   Mn1        1.0     0.750924     0.497849     0.237746    Uiso  ? Mn
   Mn2        1.0     0.751093     0.499378     0.763406    Uiso  ? Mn
   Mn3        1.0     0.249895     0.999630     0.760132    Uiso  ? Mn
