
#======================================================================
# CRYSTAL DATA
#----------------------------------------------------------------------
data_VESTA_phase_1

_chemical_name_common                  'Sm1 Co5                               '
_cell_length_a                         10.040523
_cell_length_b                         4.957897
_cell_length_c                         7.896985
_cell_angle_alpha                      89.997688
_cell_angle_beta                       89.976662
_cell_angle_gamma                      119.647812
_cell_volume                           341.645758
_space_group_name_H-M_alt              'P 1'
_space_group_IT_number                 1

loop_
_space_group_symop_operation_xyz
   'x, y, z'

loop_
   _atom_site_label
   _atom_site_occupancy
   _atom_site_fract_x
   _atom_site_fract_y
   _atom_site_fract_z
   _atom_site_adp_type
   _atom_site_U_iso_or_equiv
   _atom_site_type_symbol
   Sm1        1.0     0.999684     0.998974     0.997572    Uiso  ? Sm
   Sm2        1.0     0.500136     0.000854     0.995207    Uiso  ? Sm
   Sm3        1.0     0.996728     0.995860     0.502338    Uiso  ? Sm
   Sm4        1.0     0.503695     0.004550     0.502752    Uiso  ? Sm
   Co1        1.0     0.180741     0.680205     0.999083    Uiso  ? Co
   Co2        1.0     0.318523     0.318937     0.998772    Uiso  ? Co
   Co3        1.0     0.681534     0.682547     0.999710    Uiso  ? Co
   Co4        1.0     0.819414     0.318367     0.999760    Uiso  ? Co
   Co5        1.0     0.334314     0.334260     0.501843    Uiso  ? Co
   Co6        1.0     0.662564     0.665053     0.502213    Uiso  ? Co
   Co7        1.0     0.838784     0.336238     0.500794    Uiso  ? Co
   Co8        1.0     0.999061     0.499077     0.244096    Uiso  ? Co
   Co9        1.0     0.244401     0.997447     0.250978    Uiso  ? Co
   Co10       1.0     0.755589     0.003429     0.251880    Uiso  ? Co
   Co11       1.0     0.244363     0.491256     0.251098    Uiso  ? Co
   Co12       1.0     0.755438     0.507657     0.252094    Uiso  ? Co
   Co13       1.0     0.998994     0.498822     0.757105    Uiso  ? Co
   Co14       1.0     0.248715     0.999480     0.747848    Uiso  ? Co
   Co15       1.0     0.248783     0.498020     0.747757    Uiso  ? Co
   Co16       1.0     0.500249     0.500534     0.756047    Uiso  ? Co
   Co17       1.0     0.751247     0.001435     0.747875    Uiso  ? Co
   Co18       1.0     0.751221     0.500957     0.747576    Uiso  ? Co
   Mn1        1.0     0.500261     0.500674     0.245181    Uiso  ? Mn
   Fe1        1.0     0.165561     0.665367     0.500423    Uiso  ? Fe
