
#======================================================================
# CRYSTAL DATA
#----------------------------------------------------------------------
data_VESTA_phase_1

_chemical_name_common                  'Sm12 Co42'
_cell_length_a                         5.021816
_cell_length_b                         5.021816
_cell_length_c                         36.247833
_cell_angle_alpha                      90.000000
_cell_angle_beta                       90.000000
_cell_angle_gamma                      120.000000
_cell_volume                           791.652010
_space_group_name_H-M_alt              'P 1'
_space_group_IT_number                 1

loop_
_space_group_symop_operation_xyz
   'x, y, z'

loop_
   _atom_site_label
   _atom_site_occupancy
   _atom_site_fract_x
   _atom_site_fract_y
   _atom_site_fract_z
   _atom_site_adp_type
   _atom_site_U_iso_or_equiv
   _atom_site_type_symbol
   Sm1        1.0     0.000000     0.000000     0.948678    Uiso  ? Sm
   Sm2        1.0     0.333333     0.666667     0.717988    Uiso  ? Sm
   Sm3        1.0     0.666667     0.333333     0.282210    Uiso  ? Sm
   Sm4        1.0     0.000000     0.000000     0.051123    Uiso  ? Sm
   Sm5        1.0     0.333333     0.666667     0.615345    Uiso  ? Sm
   Sm6        1.0     0.666667     0.333333     0.384655    Uiso  ? Sm
   Sm7        1.0     0.000000     0.000000     0.851872    Uiso  ? Sm
   Sm8        1.0     0.333333     0.666667     0.814821    Uiso  ? Sm
   Sm9        1.0     0.666667     0.333333     0.185681    Uiso  ? Sm
   Sm10       1.0     0.000000     0.000000     0.147652    Uiso  ? Sm
   Sm11       1.0     0.333333     0.666667     0.518512    Uiso  ? Sm
   Sm12       1.0     0.666667     0.333333     0.481461    Uiso  ? Sm
   Co1        1.0     0.666667     0.333333     0.833300    Uiso  ? Co
   Co2        1.0     0.000000     0.000000     0.500034    Uiso  ? Co
   Co3        1.0     0.000000     0.000000     0.721185    Uiso  ? Co
   Co4        1.0     0.333333     0.666667     0.945461    Uiso  ? Co
   Co5        1.0     0.666667     0.333333     0.054827    Uiso  ? Co
   Co6        1.0     0.000000     0.000000     0.278506    Uiso  ? Co
   Co7        1.0     0.333333     0.666667     0.387872    Uiso  ? Co
   Co8        1.0     0.666667     0.333333     0.612148    Uiso  ? Co
   Co9        1.0     0.666667     0.333333     0.945753    Uiso  ? Co
   Co10       1.0     0.666667     0.333333     0.720987    Uiso  ? Co
   Co11       1.0     0.333333     0.666667     0.278672    Uiso  ? Co
   Co12       1.0     0.333333     0.666667     0.054661    Uiso  ? Co
   Co13       1.0     0.000000     0.000000     0.612346    Uiso  ? Co
   Co14       1.0     0.000000     0.000000     0.387581    Uiso  ? Co
   Co15       1.0     0.499959    -0.000082     0.000164    Uiso  ? Co
   Co16       1.0     0.499959     0.500041     0.000164    Uiso  ? Co
   Co17       1.0     0.000082     0.500041     0.000164    Uiso  ? Co
   Co18       1.0     0.166708     0.333416     0.333170    Uiso  ? Co
   Co19       1.0     0.166708     0.833292     0.333170    Uiso  ? Co
   Co20       1.0     0.666584     0.833292     0.333170    Uiso  ? Co
   Co21       1.0     0.833333     0.666667     0.666667    Uiso  ? Co
   Co22       1.0     0.833333     0.166667     0.666667    Uiso  ? Co
   Co23       1.0     0.333333     0.166667     0.666667    Uiso  ? Co
   Co24       1.0     0.997606     0.498803     0.891870    Uiso  ? Co
   Co25       1.0     0.501197     0.002394     0.891870    Uiso  ? Co
   Co26       1.0     0.501197     0.498803     0.891870    Uiso  ? Co
   Co27       1.0     0.335475     0.167738     0.774819    Uiso  ? Co
   Co28       1.0     0.832263     0.664525     0.774819    Uiso  ? Co
   Co29       1.0     0.832263     0.167738     0.774819    Uiso  ? Co
   Co30       1.0     0.666102     0.833051     0.224762    Uiso  ? Co
   Co31       1.0     0.166949     0.333898     0.224762    Uiso  ? Co
   Co32       1.0     0.166949     0.833051     0.224762    Uiso  ? Co
   Co33       1.0     0.000565     0.500282     0.108572    Uiso  ? Co
   Co34       1.0     0.499718     0.999435     0.108572    Uiso  ? Co
   Co35       1.0     0.499718     0.500282     0.108572    Uiso  ? Co
   Co36       1.0     0.331192     0.165596     0.558515    Uiso  ? Co
   Co37       1.0     0.834404     0.668808     0.558515    Uiso  ? Co
   Co38       1.0     0.834404     0.165596     0.558515    Uiso  ? Co
   Co39       1.0     0.669061     0.834530     0.441464    Uiso  ? Co
   Co40       1.0     0.165470     0.330939     0.441464    Uiso  ? Co
   Co41       1.0     0.165470     0.834530     0.441464    Uiso  ? Co
   Fe1        1.0     0.333333     0.666667     0.166667    Uiso  ? Fe
