
#======================================================================
# CRYSTAL DATA
#----------------------------------------------------------------------
data_VESTA_phase_1

_chemical_name_common                  'Sm12 Co42'
_cell_length_a                         4.997474
_cell_length_b                         5.034554
_cell_length_c                         36.394085
_cell_angle_alpha                      90.000000
_cell_angle_beta                       90.000000
_cell_angle_gamma                      120.000000
_cell_volume                           792.999658
_space_group_name_H-M_alt              'P 1'
_space_group_IT_number                 1

loop_
_space_group_symop_operation_xyz
   'x, y, z'

loop_
   _atom_site_label
   _atom_site_occupancy
   _atom_site_fract_x
   _atom_site_fract_y
   _atom_site_fract_z
   _atom_site_adp_type
   _atom_site_U_iso_or_equiv
   _atom_site_type_symbol
   Sm1        1.0     0.000175     0.000088     0.948669    Uiso  ? Sm
   Sm2        1.0     0.333245     0.666622     0.718226    Uiso  ? Sm
   Sm3        1.0     0.667879     0.333940     0.281669    Uiso  ? Sm
   Sm4        1.0    -0.000108    -0.000054     0.051188    Uiso  ? Sm
   Sm5        1.0     0.332295     0.666147     0.615800    Uiso  ? Sm
   Sm6        1.0     0.669358     0.334679     0.384297    Uiso  ? Sm
   Sm7        1.0     0.000279     0.000139     0.852004    Uiso  ? Sm
   Sm8        1.0     0.332322     0.666161     0.814894    Uiso  ? Sm
   Sm9        1.0     0.667328     0.333664     0.184998    Uiso  ? Sm
   Sm10       1.0     0.999860     0.999930     0.147884    Uiso  ? Sm
   Sm11       1.0     0.331361     0.665680     0.519257    Uiso  ? Sm
   Sm12       1.0     0.665236     0.332618     0.482498    Uiso  ? Sm
   Co1        1.0     0.666050     0.333025     0.833422    Uiso  ? Co
   Co2        1.0     0.334015     0.667007     0.166350    Uiso  ? Co
   Co3        1.0    -0.004914    -0.002457     0.499677    Uiso  ? Co
   Co4        1.0     0.003894     0.001947     0.721341    Uiso  ? Co
   Co5        1.0     0.328730     0.664365     0.945447    Uiso  ? Co
   Co6        1.0     0.671161     0.335581     0.054382    Uiso  ? Co
   Co7        1.0    -0.008786    -0.004393     0.278378    Uiso  ? Co
   Co8        1.0     0.344107     0.672054     0.387023    Uiso  ? Co
   Co9        1.0     0.657731     0.328865     0.612301    Uiso  ? Co
   Co10       1.0     0.671477     0.335738     0.945586    Uiso  ? Co
   Co11       1.0     0.662624     0.331312     0.721412    Uiso  ? Co
   Co12       1.0     0.344672     0.672336     0.278697    Uiso  ? Co
   Co13       1.0     0.328766     0.664383     0.054269    Uiso  ? Co
   Co14       1.0     0.005824     0.002912     0.612880    Uiso  ? Co
   Co15       1.0    -0.001873    -0.000937     0.387369    Uiso  ? Co
   Co16       1.0     0.500089     0.000062    -0.000069    Uiso  ? Co
   Co17       1.0     0.500089     0.500027    -0.000069    Uiso  ? Co
   Co18       1.0     0.000140     0.500070    -0.000055    Uiso  ? Co
   Co19       1.0     0.168075     0.334212     0.332691    Uiso  ? Co
   Co20       1.0     0.168075     0.833863     0.332691    Uiso  ? Co
   Co21       1.0     0.669427     0.834714     0.333157    Uiso  ? Co
   Co22       1.0     0.833060     0.666245     0.666935    Uiso  ? Co
   Co23       1.0     0.833060     0.166815     0.666935    Uiso  ? Co
   Co24       1.0     0.333679     0.166840     0.667117    Uiso  ? Co
   Co25       1.0     0.997522     0.498761     0.891577    Uiso  ? Co
   Co26       1.0     0.501254     0.002014     0.892015    Uiso  ? Co
   Co27       1.0     0.501254     0.499240     0.892015    Uiso  ? Co
   Co28       1.0     0.335087     0.167544     0.775314    Uiso  ? Co
   Co29       1.0     0.831713     0.664680     0.774862    Uiso  ? Co
   Co30       1.0     0.831713     0.167033     0.774862    Uiso  ? Co
   Co31       1.0     0.664756     0.832378     0.224325    Uiso  ? Co
   Co32       1.0     0.168032     0.336010     0.225187    Uiso  ? Co
   Co33       1.0     0.168032     0.832022     0.225187    Uiso  ? Co
   Co34       1.0     0.002480     0.501240     0.108302    Uiso  ? Co
   Co35       1.0     0.498950     0.998105     0.107828    Uiso  ? Co
   Co36       1.0     0.498950     0.500845     0.107828    Uiso  ? Co
   Co37       1.0     0.326700     0.163350     0.558528    Uiso  ? Co
   Co38       1.0     0.832661     0.668358     0.559226    Uiso  ? Co
   Co39       1.0     0.832661     0.164303     0.559226    Uiso  ? Co
   Co40       1.0     0.166788     0.333666     0.441370    Uiso  ? Co
   Co41       1.0     0.166788     0.833121     0.441370    Uiso  ? Co
   Fe1        1.0     0.666260     0.833130     0.441731    Uiso  ? Fe
