
#======================================================================
# CRYSTAL DATA
#----------------------------------------------------------------------
data_VESTA_phase_1

_chemical_name_common                  'Sm12 Co42'
_cell_length_a                         5.016026
_cell_length_b                         5.016026
_cell_length_c                         36.300781
_cell_angle_alpha                      90.000000
_cell_angle_beta                       90.000000
_cell_angle_gamma                      119.994980
_cell_volume                           791.021216
_space_group_name_H-M_alt              'P 1'
_space_group_IT_number                 1

loop_
_space_group_symop_operation_xyz
   'x, y, z'

loop_
   _atom_site_label
   _atom_site_occupancy
   _atom_site_fract_x
   _atom_site_fract_y
   _atom_site_fract_z
   _atom_site_adp_type
   _atom_site_U_iso_or_equiv
   _atom_site_type_symbol
   Sm1        1.0     1.000018    -0.000018     0.948620    Uiso  ? Sm
   Sm2        1.0     0.333288     0.666712     0.718066    Uiso  ? Sm
   Sm3        1.0     0.666740     0.333260     0.281856    Uiso  ? Sm
   Sm4        1.0     0.000012     0.999988     0.051236    Uiso  ? Sm
   Sm5        1.0     0.333333     0.666667     0.615495    Uiso  ? Sm
   Sm6        1.0     0.666675     0.333325     0.384314    Uiso  ? Sm
   Sm7        1.0     0.999988     0.000012     0.851861    Uiso  ? Sm
   Sm8        1.0     0.333348     0.666652     0.814804    Uiso  ? Sm
   Sm9        1.0     0.666670     0.333330     0.185197    Uiso  ? Sm
   Sm10       1.0     1.000017    -0.000017     0.148080    Uiso  ? Sm
   Sm11       1.0     0.333296     0.666704     0.518837    Uiso  ? Sm
   Sm12       1.0     0.666678     0.333322     0.481619    Uiso  ? Sm
   Co1        1.0     0.666663     0.333337     0.833296    Uiso  ? Co
   Co2        1.0     0.333366     0.666634     0.166501    Uiso  ? Co
   Co3        1.0     0.999994     0.000006     0.499419    Uiso  ? Co
   Co4        1.0     0.999814     0.000186     0.721214    Uiso  ? Co
   Co5        1.0     0.333428     0.666572     0.945359    Uiso  ? Co
   Co6        1.0     0.666464     0.333536     0.054406    Uiso  ? Co
   Co7        1.0     0.999991     0.000009     0.278645    Uiso  ? Co
   Co8        1.0     0.666539     0.333461     0.612195    Uiso  ? Co
   Co9        1.0     0.666611     0.333389     0.945565    Uiso  ? Co
   Co10       1.0     0.666735     0.333266     0.721181    Uiso  ? Co
   Co11       1.0     0.333487     0.666513     0.279284    Uiso  ? Co
   Co12       1.0     0.333571     0.666429     0.054354    Uiso  ? Co
   Co13       1.0     0.000105     0.999895     0.612486    Uiso  ? Co
   Co14       1.0     0.000032     0.999968     0.388093    Uiso  ? Co
   Co15       1.0     0.499922    -0.000163     0.999915    Uiso  ? Co
   Co16       1.0     0.499957     0.500043     0.999894    Uiso  ? Co
   Co17       1.0     1.000163     0.500078     0.999915    Uiso  ? Co
   Co18       1.0     0.165877     0.331588     0.333181    Uiso  ? Co
   Co19       1.0     0.165880     0.834120     0.333157    Uiso  ? Co
   Co20       1.0     0.668412     0.834123     0.333181    Uiso  ? Co
   Co21       1.0     0.833276     0.666515     0.666803    Uiso  ? Co
   Co22       1.0     0.833273     0.166727     0.666774    Uiso  ? Co
   Co23       1.0     0.333485     0.166724     0.666803    Uiso  ? Co
   Co24       1.0     0.997750     0.498871     0.891759    Uiso  ? Co
   Co25       1.0     0.501129     0.002250     0.891759    Uiso  ? Co
   Co26       1.0     0.501179     0.498821     0.891735    Uiso  ? Co
   Co27       1.0     0.335112     0.167567     0.774880    Uiso  ? Co
   Co28       1.0     0.832433     0.664888     0.774880    Uiso  ? Co
   Co29       1.0     0.832270     0.167730     0.774905    Uiso  ? Co
   Co30       1.0     0.663943     0.831970     0.225148    Uiso  ? Co
   Co31       1.0     0.168030     0.336057     0.225148    Uiso  ? Co
   Co32       1.0     0.168071     0.831929     0.225157    Uiso  ? Co
   Co33       1.0     0.001845     0.500982     0.108069    Uiso  ? Co
   Co34       1.0     0.499018     0.998155     0.108069    Uiso  ? Co
   Co35       1.0     0.498924     0.501076     0.108113    Uiso  ? Co
   Co36       1.0     0.330797     0.165464     0.558579    Uiso  ? Co
   Co37       1.0     0.834536     0.669203     0.558579    Uiso  ? Co
   Co38       1.0     0.834535     0.165465     0.558586    Uiso  ? Co
   Co39       1.0     0.668377     0.834156     0.441810    Uiso  ? Co
   Co40       1.0     0.165844     0.331623     0.441810    Uiso  ? Co
   Co41       1.0     0.165819     0.834181     0.441821    Uiso  ? Co
   Fe1        1.0     0.333283     0.666717     0.387593    Uiso  ? Fe
