
#======================================================================
# CRYSTAL DATA
#----------------------------------------------------------------------
data_VESTA_phase_1

_chemical_name_common                  'Sm8 Co28'
_cell_length_a                         5.044020
_cell_length_b                         4.990798
_cell_length_c                         24.290958
_cell_angle_alpha                      90.000000
_cell_angle_beta                       90.000000
_cell_angle_gamma                      120.353386
_cell_volume                           527.672605
_space_group_name_H-M_alt              'P 1'
_space_group_IT_number                 1

loop_
_space_group_symop_operation_xyz
   'x, y, z'

loop_
   _atom_site_label
   _atom_site_occupancy
   _atom_site_fract_x
   _atom_site_fract_y
   _atom_site_fract_z
   _atom_site_adp_type
   _atom_site_U_iso_or_equiv
   _atom_site_type_symbol
   Sm1        1.0     0.665700     0.331400     0.528812    Uiso  ? Sm
   Sm2        1.0     0.333141     0.666281     0.027616    Uiso  ? Sm
   Sm3        1.0     0.332311     0.664623     0.473667    Uiso  ? Sm
   Sm4        1.0     0.666750     0.333501     0.971990    Uiso  ? Sm
   Sm5        1.0     0.666186     0.332371     0.673642    Uiso  ? Sm
   Sm6        1.0     0.333685     0.667369     0.172601    Uiso  ? Sm
   Sm7        1.0     0.334568     0.669137     0.326464    Uiso  ? Sm
   Sm8        1.0     0.667060     0.334121     0.827085    Uiso  ? Sm
   Co1        1.0     0.997456     0.994912     0.499539    Uiso  ? Co
   Co2        1.0     0.999988     0.999976     0.999864    Uiso  ? Co
   Co3        1.0     0.003769     0.007537     0.669028    Uiso  ? Co
   Co4        1.0     0.995950     0.991900     0.167788    Uiso  ? Co
   Co5        1.0     0.998253     0.996506     0.331130    Uiso  ? Co
   Co6        1.0     0.003995     0.007989     0.831737    Uiso  ? Co
   Co7        1.0     0.672454     0.344908     0.330611    Uiso  ? Co
   Co8        1.0     0.330193     0.660387     0.832088    Uiso  ? Co
   Co9        1.0     0.328323     0.656646     0.668390    Uiso  ? Co
   Co10       1.0     0.671598     0.343196     0.167952    Uiso  ? Co
   Co11       1.0     0.667528     0.833732     0.750306    Uiso  ? Co
   Co12       1.0     0.834662     0.669325     0.249652    Uiso  ? Co
   Co13       1.0     0.834614     0.167740     0.249208    Uiso  ? Co
   Co14       1.0     0.166204     0.833732     0.750306    Uiso  ? Co
   Co15       1.0     0.166807     0.333613     0.750397    Uiso  ? Co
   Co16       1.0     0.333127     0.167740     0.249208    Uiso  ? Co
   Co17       1.0     0.668202     0.832602     0.588860    Uiso  ? Co
   Co18       1.0     0.164400     0.832602     0.588860    Uiso  ? Co
   Co19       1.0     0.163379     0.326759     0.587535    Uiso  ? Co
   Co20       1.0     0.834598     0.669196     0.086660    Uiso  ? Co
   Co21       1.0     0.834408     0.166202     0.087828    Uiso  ? Co
   Co22       1.0     0.331795     0.166202     0.087828    Uiso  ? Co
   Co23       1.0     0.333348     0.166102     0.412032    Uiso  ? Co
   Co24       1.0     0.832754     0.166102     0.412032    Uiso  ? Co
   Co25       1.0     0.165132     0.834174     0.911891    Uiso  ? Co
   Co26       1.0     0.669042     0.834174     0.911891    Uiso  ? Co
   Co27       1.0     0.165591     0.331182     0.912821    Uiso  ? Co
   Fe1        1.0     0.833030     0.666061     0.412681    Uiso  ? Fe
