
#======================================================================
# CRYSTAL DATA
#----------------------------------------------------------------------
data_VESTA_phase_1

_chemical_name_common                  'Sm8 Co28'
_cell_length_a                         5.016958
_cell_length_b                         5.016958
_cell_length_c                         24.216640
_cell_angle_alpha                      90.000000
_cell_angle_beta                       90.000000
_cell_angle_gamma                      120.000000
_cell_volume                           527.868097
_space_group_name_H-M_alt              'P 1'
_space_group_IT_number                 1

loop_
_space_group_symop_operation_xyz
   'x, y, z'

loop_
   _atom_site_label
   _atom_site_occupancy
   _atom_site_fract_x
   _atom_site_fract_y
   _atom_site_fract_z
   _atom_site_adp_type
   _atom_site_U_iso_or_equiv
   _atom_site_type_symbol
   Sm1        1.0     0.666667     0.333333     0.528194    Uiso  ? Sm
   Sm2        1.0     0.333333     0.666667     0.027832    Uiso  ? Sm
   Sm3        1.0     0.333333     0.666667     0.472332    Uiso  ? Sm
   Sm4        1.0     0.666667     0.333333     0.972166    Uiso  ? Sm
   Sm5        1.0     0.666667     0.333333     0.673126    Uiso  ? Sm
   Sm6        1.0     0.333333     0.666667     0.172854    Uiso  ? Sm
   Sm7        1.0     0.333333     0.666667     0.326402    Uiso  ? Sm
   Sm8        1.0     0.666667     0.333333     0.826905    Uiso  ? Sm
   Co1        1.0     0.000000     0.000000     0.499111    Uiso  ? Co
   Co2        1.0     0.000000     0.000000     0.000027    Uiso  ? Co
   Co3        1.0     0.000000     0.000000     0.668361    Uiso  ? Co
   Co4        1.0     0.000000     0.000000     0.168027    Uiso  ? Co
   Co5        1.0     0.000000     0.000000     0.332399    Uiso  ? Co
   Co6        1.0     0.000000     0.000000     0.831696    Uiso  ? Co
   Co7        1.0     0.333333     0.666667     0.831799    Uiso  ? Co
   Co8        1.0     0.333333     0.666667     0.668256    Uiso  ? Co
   Co9        1.0     0.666667     0.333333     0.168933    Uiso  ? Co
   Co10       1.0     0.667572     0.833786     0.750020    Uiso  ? Co
   Co11       1.0     0.834592     0.669183     0.249760    Uiso  ? Co
   Co12       1.0     0.834592     0.165408     0.249760    Uiso  ? Co
   Co13       1.0     0.166214     0.833786     0.750020    Uiso  ? Co
   Co14       1.0     0.166214     0.332428     0.750020    Uiso  ? Co
   Co15       1.0     0.330817     0.165408     0.249760    Uiso  ? Co
   Co16       1.0     0.668854     0.834427     0.587738    Uiso  ? Co
   Co17       1.0     0.165573     0.834427     0.587738    Uiso  ? Co
   Co18       1.0     0.165573     0.331146     0.587738    Uiso  ? Co
   Co19       1.0     0.834076     0.668152     0.087742    Uiso  ? Co
   Co20       1.0     0.834076     0.165924     0.087742    Uiso  ? Co
   Co21       1.0     0.331848     0.165924     0.087742    Uiso  ? Co
   Co22       1.0     0.332093     0.166046     0.412684    Uiso  ? Co
   Co23       1.0     0.833954     0.667907     0.412684    Uiso  ? Co
   Co24       1.0     0.833954     0.166046     0.412684    Uiso  ? Co
   Co25       1.0     0.165629     0.834371     0.912241    Uiso  ? Co
   Co26       1.0     0.668742     0.834371     0.912241    Uiso  ? Co
   Co27       1.0     0.165629     0.331258     0.912241    Uiso  ? Co
   Fe1        1.0     0.666667     0.333333     0.331029    Uiso  ? Fe
