
#======================================================================
# CRYSTAL DATA
#----------------------------------------------------------------------
data_VESTA_phase_1

_chemical_name_common                  'Sm8 Co28'
_cell_length_a                         5.029402
_cell_length_b                         5.029402
_cell_length_c                         24.119637
_cell_angle_alpha                      90.000000
_cell_angle_beta                       90.000000
_cell_angle_gamma                      120.000000
_cell_volume                           528.365014
_space_group_name_H-M_alt              'P 1'
_space_group_IT_number                 1

loop_
_space_group_symop_operation_xyz
   'x, y, z'

loop_
   _atom_site_label
   _atom_site_occupancy
   _atom_site_fract_x
   _atom_site_fract_y
   _atom_site_fract_z
   _atom_site_adp_type
   _atom_site_U_iso_or_equiv
   _atom_site_type_symbol
   Sm1        1.0     0.666667     0.333333     0.528498    Uiso  ? Sm
   Sm2        1.0     0.333333     0.666667     0.027856    Uiso  ? Sm
   Sm3        1.0     0.333333     0.666667     0.471502    Uiso  ? Sm
   Sm4        1.0     0.666667     0.333333     0.972144    Uiso  ? Sm
   Sm5        1.0     0.666667     0.333333     0.673247    Uiso  ? Sm
   Sm6        1.0     0.333333     0.666667     0.173063    Uiso  ? Sm
   Sm7        1.0     0.333333     0.666667     0.326753    Uiso  ? Sm
   Sm8        1.0     0.666667     0.333333     0.826937    Uiso  ? Sm
   Co1        1.0     0.000000     0.000000     0.000000    Uiso  ? Co
   Co2        1.0     0.000000     0.000000     0.667905    Uiso  ? Co
   Co3        1.0     0.000000     0.000000     0.168338    Uiso  ? Co
   Co4        1.0     0.000000     0.000000     0.332095    Uiso  ? Co
   Co5        1.0     0.000000     0.000000     0.831662    Uiso  ? Co
   Co6        1.0     0.666667     0.333333     0.332282    Uiso  ? Co
   Co7        1.0     0.333333     0.666667     0.831602    Uiso  ? Co
   Co8        1.0     0.333333     0.666667     0.667718    Uiso  ? Co
   Co9        1.0     0.666667     0.333333     0.168398    Uiso  ? Co
   Co10       1.0     0.667516     0.833758     0.749719    Uiso  ? Co
   Co11       1.0     0.833758     0.667516     0.250281    Uiso  ? Co
   Co12       1.0     0.833758     0.166242     0.250281    Uiso  ? Co
   Co13       1.0     0.166242     0.833758     0.749719    Uiso  ? Co
   Co14       1.0     0.166242     0.332485     0.749719    Uiso  ? Co
   Co15       1.0     0.332485     0.166242     0.250281    Uiso  ? Co
   Co16       1.0     0.667353     0.833676     0.587044    Uiso  ? Co
   Co17       1.0     0.166324     0.833676     0.587044    Uiso  ? Co
   Co18       1.0     0.166324     0.332647     0.587044    Uiso  ? Co
   Co19       1.0     0.834288     0.668576     0.087735    Uiso  ? Co
   Co20       1.0     0.834288     0.165712     0.087735    Uiso  ? Co
   Co21       1.0     0.331424     0.165712     0.087735    Uiso  ? Co
   Co22       1.0     0.332647     0.166324     0.412956    Uiso  ? Co
   Co23       1.0     0.833676     0.667353     0.412956    Uiso  ? Co
   Co24       1.0     0.833676     0.166324     0.412956    Uiso  ? Co
   Co25       1.0     0.165712     0.834288     0.912265    Uiso  ? Co
   Co26       1.0     0.668576     0.834288     0.912265    Uiso  ? Co
   Co27       1.0     0.165712     0.331424     0.912265    Uiso  ? Co
   Fe1        1.0     0.000000     0.000000     0.500000    Uiso  ? Fe
