
#======================================================================
# CRYSTAL DATA
#----------------------------------------------------------------------
data_VESTA_phase_1

_chemical_name_common                  'Sm8 Co28'
_cell_length_a                         5.019425
_cell_length_b                         5.019425
_cell_length_c                         24.191526
_cell_angle_alpha                      90.000000
_cell_angle_beta                       90.000000
_cell_angle_gamma                      120.000000
_cell_volume                           527.839428
_space_group_name_H-M_alt              'P 1'
_space_group_IT_number                 1

loop_
_space_group_symop_operation_xyz
   'x, y, z'

loop_
   _atom_site_label
   _atom_site_occupancy
   _atom_site_fract_x
   _atom_site_fract_y
   _atom_site_fract_z
   _atom_site_adp_type
   _atom_site_U_iso_or_equiv
   _atom_site_type_symbol
   Sm1        1.0     0.666667     0.333333     0.527781    Uiso  ? Sm
   Sm2        1.0     0.333333     0.666667     0.027834    Uiso  ? Sm
   Sm3        1.0     0.333333     0.666667     0.472328    Uiso  ? Sm
   Sm4        1.0     0.666667     0.333333     0.972236    Uiso  ? Sm
   Sm5        1.0     0.666667     0.333333     0.673038    Uiso  ? Sm
   Sm6        1.0     0.333333     0.666667     0.172814    Uiso  ? Sm
   Sm7        1.0     0.333333     0.666667     0.326555    Uiso  ? Sm
   Sm8        1.0     0.666667     0.333333     0.826908    Uiso  ? Sm
   Co1        1.0     0.000000     0.000000     0.499022    Uiso  ? Co
   Co2        1.0     0.000000     0.000000     0.000029    Uiso  ? Co
   Co3        1.0     0.000000     0.000000     0.668486    Uiso  ? Co
   Co4        1.0     0.000000     0.000000     0.168576    Uiso  ? Co
   Co5        1.0     0.000000     0.000000     0.831697    Uiso  ? Co
   Co6        1.0     0.666667     0.333333     0.331831    Uiso  ? Co
   Co7        1.0     0.333333     0.666667     0.831827    Uiso  ? Co
   Co8        1.0     0.333333     0.666667     0.668035    Uiso  ? Co
   Co9        1.0     0.666667     0.333333     0.168258    Uiso  ? Co
   Co10       1.0     0.667404     0.833702     0.750000    Uiso  ? Co
   Co11       1.0     0.833187     0.666374     0.249794    Uiso  ? Co
   Co12       1.0     0.833187     0.166813     0.249794    Uiso  ? Co
   Co13       1.0     0.166298     0.833702     0.750000    Uiso  ? Co
   Co14       1.0     0.166298     0.332596     0.750000    Uiso  ? Co
   Co15       1.0     0.333626     0.166813     0.249794    Uiso  ? Co
   Co16       1.0     0.669627     0.834813     0.587684    Uiso  ? Co
   Co17       1.0     0.165186     0.834813     0.587684    Uiso  ? Co
   Co18       1.0     0.165186     0.330373     0.587684    Uiso  ? Co
   Co19       1.0     0.834558     0.669116     0.087741    Uiso  ? Co
   Co20       1.0     0.834558     0.165442     0.087741    Uiso  ? Co
   Co21       1.0     0.330884     0.165442     0.087741    Uiso  ? Co
   Co22       1.0     0.333918     0.166959     0.412656    Uiso  ? Co
   Co23       1.0     0.833041     0.666082     0.412656    Uiso  ? Co
   Co24       1.0     0.833041     0.166959     0.412656    Uiso  ? Co
   Co25       1.0     0.165570     0.834430     0.912279    Uiso  ? Co
   Co26       1.0     0.668861     0.834430     0.912279    Uiso  ? Co
   Co27       1.0     0.165570     0.331139     0.912279    Uiso  ? Co
   Fe1        1.0     0.000000     0.000000     0.332285    Uiso  ? Fe
