
#======================================================================
# CRYSTAL DATA
#----------------------------------------------------------------------
data_VESTA_phase_1

_chemical_name_common                  'Sm12 Co42                             '
_cell_length_a                         5.043619
_cell_length_b                         5.024354
_cell_length_c                         36.188847
_cell_angle_alpha                      89.866547
_cell_angle_beta                       90.050819
_cell_angle_gamma                      120.463165
_cell_volume                           790.461536
_space_group_name_H-M_alt              'P 1'
_space_group_IT_number                 1

loop_
_space_group_symop_operation_xyz
   'x, y, z'

loop_
   _atom_site_label
   _atom_site_occupancy
   _atom_site_fract_x
   _atom_site_fract_y
   _atom_site_fract_z
   _atom_site_adp_type
   _atom_site_U_iso_or_equiv
   _atom_site_type_symbol
   Sm1        1.0     0.991689     0.998944     0.948597    Uiso  ? Sm
   Sm2        1.0     0.341975     0.657439     0.717974    Uiso  ? Sm
   Sm3        1.0     0.666392     0.342161     0.282062    Uiso  ? Sm
   Sm4        1.0     0.991256     0.997229     0.051272    Uiso  ? Sm
   Sm5        1.0     0.341860     0.659903     0.615369    Uiso  ? Sm
   Sm6        1.0     0.667279     0.340882     0.384713    Uiso  ? Sm
   Sm7        1.0     0.999201     0.995327     0.852117    Uiso  ? Sm
   Sm8        1.0     0.335301     0.660953     0.814447    Uiso  ? Sm
   Sm9        1.0     0.654174     0.336327     0.185537    Uiso  ? Sm
   Sm10       1.0     0.986613     0.002448     0.147861    Uiso  ? Sm
   Sm11       1.0     0.346598     0.673933     0.518921    Uiso  ? Sm
   Sm12       1.0     0.678818     0.343027     0.481231    Uiso  ? Sm
   Co1        1.0     0.667151     0.328100     0.833264    Uiso  ? Co
   Co2        1.0     0.312068     0.669350     0.166699    Uiso  ? Co
   Co3        1.0     0.020793     0.016558     0.500051    Uiso  ? Co
   Co4        1.0     0.014573     0.977522     0.721295    Uiso  ? Co
   Co5        1.0     0.318567     0.674190     0.945246    Uiso  ? Co
   Co6        1.0     0.658882     0.326367     0.054614    Uiso  ? Co
   Co7        1.0     0.000606     0.013987     0.278696    Uiso  ? Co
   Co8        1.0     0.322783     0.666932     0.388082    Uiso  ? Co
   Co9        1.0     0.671503     0.314775     0.611977    Uiso  ? Co
   Co10       1.0     0.664635     0.323868     0.945710    Uiso  ? Co
   Co11       1.0     0.669464     0.337092     0.720873    Uiso  ? Co
   Co12       1.0     0.331620     0.670545     0.279202    Uiso  ? Co
   Co13       1.0     0.323301     0.667779     0.054153    Uiso  ? Co
   Co14       1.0     0.012319     0.004611     0.612474    Uiso  ? Co
   Co15       1.0     0.011022     0.014968     0.387605    Uiso  ? Co
   Co16       1.0     0.491409     0.997907     0.000116    Uiso  ? Co
   Co17       1.0     0.491313     0.498192     0.999528    Uiso  ? Co
   Co18       1.0     0.991355     0.498021     0.000139    Uiso  ? Co
   Co19       1.0     0.167640     0.341934     0.333283    Uiso  ? Co
   Co20       1.0     0.167237     0.841599     0.333107    Uiso  ? Co
   Co21       1.0     0.667027     0.841301     0.333776    Uiso  ? Co
   Co22       1.0     0.842034     0.659425     0.665883    Uiso  ? Co
   Co23       1.0     0.841558     0.159221     0.667494    Uiso  ? Co
   Co24       1.0     0.342055     0.158970     0.666560    Uiso  ? Co
   Co25       1.0     0.989147     0.496228     0.891438    Uiso  ? Co
   Co26       1.0     0.496796     0.003642     0.891240    Uiso  ? Co
   Co27       1.0     0.344675     0.159541     0.775079    Uiso  ? Co
   Co28       1.0     0.837481     0.652441     0.775518    Uiso  ? Co
   Co29       1.0     0.163840     0.346476     0.224877    Uiso  ? Co
   Co30       1.0     0.164624     0.837375     0.225625    Uiso  ? Co
   Co31       1.0     0.995058     0.501526     0.108111    Uiso  ? Co
   Co32       1.0     0.486264     0.993176     0.108445    Uiso  ? Co
   Co33       1.0     0.336701     0.162486     0.558467    Uiso  ? Co
   Co34       1.0     0.847320     0.162902     0.558291    Uiso  ? Co
   Co35       1.0     0.168235     0.334098     0.441916    Uiso  ? Co
   Co36       1.0     0.168763     0.843945     0.441631    Uiso  ? Co
   Ni1        1.0     0.667234     0.838161     0.441924    Uiso  ? Ni
   Ni2        1.0     0.492843     0.500407     0.891755    Uiso  ? Ni
   Ni3        1.0     0.491057     0.496718     0.108631    Uiso  ? Ni
   Ni4        1.0     0.841288     0.155979     0.774642    Uiso  ? Ni
   Ni5        1.0     0.665714     0.842306     0.224399    Uiso  ? Ni
   Ni6        1.0     0.840887     0.660808     0.558084    Uiso  ? Ni
