
#======================================================================
# CRYSTAL DATA
#----------------------------------------------------------------------
data_VESTA_phase_1

_chemical_name_common                  'Sm12 Co42                             '
_cell_length_a                         5.058397
_cell_length_b                         5.011377
_cell_length_c                         36.224655
_cell_angle_alpha                      89.783836
_cell_angle_beta                       90.027367
_cell_angle_gamma                      120.650444
_cell_volume                           789.981951
_space_group_name_H-M_alt              'P 1'
_space_group_IT_number                 1

loop_
_space_group_symop_operation_xyz
   'x, y, z'

loop_
   _atom_site_label
   _atom_site_occupancy
   _atom_site_fract_x
   _atom_site_fract_y
   _atom_site_fract_z
   _atom_site_adp_type
   _atom_site_U_iso_or_equiv
   _atom_site_type_symbol
   Sm1        1.0     0.992280     0.000815     0.948661    Uiso  ? Sm
   Sm2        1.0     0.343967     0.662831     0.718152    Uiso  ? Sm
   Sm3        1.0     0.664168     0.336544     0.281909    Uiso  ? Sm
   Sm4        1.0     0.992292     0.997104     0.051407    Uiso  ? Sm
   Sm5        1.0     0.344712     0.667397     0.615458    Uiso  ? Sm
   Sm6        1.0     0.662867     0.333210     0.384607    Uiso  ? Sm
   Sm7        1.0     0.000018     0.998573     0.852288    Uiso  ? Sm
   Sm8        1.0     0.336612     0.664765     0.814563    Uiso  ? Sm
   Sm9        1.0     0.653754     0.333016     0.185540    Uiso  ? Sm
   Sm10       1.0     0.986554     0.000400     0.147901    Uiso  ? Sm
   Sm11       1.0     0.344183     0.669651     0.519183    Uiso  ? Sm
   Sm12       1.0     0.675397     0.337776     0.481123    Uiso  ? Sm
   Co1        1.0     0.668493     0.331763     0.833464    Uiso  ? Co
   Co2        1.0     0.312418     0.666666     0.166703    Uiso  ? Co
   Co3        1.0     0.017882     0.008148     0.498880    Uiso  ? Co
   Co4        1.0     0.020005     0.981013     0.721589    Uiso  ? Co
   Co5        1.0     0.318586     0.681531     0.945338    Uiso  ? Co
   Co6        1.0     0.656450     0.324821     0.054633    Uiso  ? Co
   Co7        1.0     0.019488     0.020408     0.278545    Uiso  ? Co
   Co8        1.0     0.337290     0.664161     0.387810    Uiso  ? Co
   Co9        1.0     0.684438     0.335850     0.612692    Uiso  ? Co
   Co10       1.0     0.665169     0.319825     0.945746    Uiso  ? Co
   Co11       1.0     0.668906     0.344835     0.721326    Uiso  ? Co
   Co12       1.0     0.310123     0.653331     0.278983    Uiso  ? Co
   Co13       1.0     0.327584     0.669046     0.054249    Uiso  ? Co
   Co14       1.0     0.005936    -0.000729     0.613411    Uiso  ? Co
   Co15       1.0     0.990231     0.003354     0.387257    Uiso  ? Co
   Co16       1.0     0.492324     0.998487     0.000366    Uiso  ? Co
   Co17       1.0     0.492354     0.499113     0.999303    Uiso  ? Co
   Co18       1.0     0.992199     0.498782     0.000365    Uiso  ? Co
   Co19       1.0     0.162567     0.334216     0.333700    Uiso  ? Co
   Co20       1.0     0.162499     0.834413     0.333715    Uiso  ? Co
   Co21       1.0     0.662512     0.834354     0.332077    Uiso  ? Co
   Co22       1.0     0.843253     0.665231     0.666280    Uiso  ? Co
   Co23       1.0     0.843116     0.165897     0.667661    Uiso  ? Co
   Co24       1.0     0.343653     0.165335     0.666161    Uiso  ? Co
   Co25       1.0     0.990009     0.499801     0.891625    Uiso  ? Co
   Co26       1.0     0.497296     0.007027     0.891026    Uiso  ? Co
   Co27       1.0     0.346279     0.163624     0.775352    Uiso  ? Co
   Co28       1.0     0.839360     0.656760     0.775900    Uiso  ? Co
   Co29       1.0     0.163771     0.343691     0.224185    Uiso  ? Co
   Co30       1.0     0.164628     0.833624     0.225284    Uiso  ? Co
   Co31       1.0     0.996226     0.500236     0.107880    Uiso  ? Co
   Co32       1.0     0.486684     0.991777     0.108602    Uiso  ? Co
   Co33       1.0     0.164534     0.328092     0.441470    Uiso  ? Co
   Co34       1.0     0.164450     0.836035     0.440570    Uiso  ? Co
   Ni1        1.0     0.663467     0.831817     0.442440    Uiso  ? Ni
   Ni2        1.0     0.493808     0.503737     0.892143    Uiso  ? Ni
   Ni3        1.0     0.491902     0.495563     0.108674    Uiso  ? Ni
   Ni4        1.0     0.842491     0.159696     0.774569    Uiso  ? Ni
   Ni5        1.0     0.665565     0.838881     0.225279    Uiso  ? Ni
   Ni6        1.0     0.846003     0.671229     0.557715    Uiso  ? Ni
   Ni7        1.0     0.342438     0.168326     0.558322    Uiso  ? Ni
   Ni8        1.0     0.846811     0.168155     0.557916    Uiso  ? Ni
