
#======================================================================
# CRYSTAL DATA
#----------------------------------------------------------------------
data_VESTA_phase_1

_chemical_name_common                  'Sm8 Co28'
_cell_length_a                         4.974666
_cell_length_b                         5.014762
_cell_length_c                         24.155745
_cell_angle_alpha                      90.000000
_cell_angle_beta                       90.000000
_cell_angle_gamma                      119.394783
_cell_volume                           525.027095
_space_group_name_H-M_alt              'P 1'
_space_group_IT_number                 1

loop_
_space_group_symop_operation_xyz
   'x, y, z'

loop_
   _atom_site_label
   _atom_site_occupancy
   _atom_site_fract_x
   _atom_site_fract_y
   _atom_site_fract_z
   _atom_site_adp_type
   _atom_site_U_iso_or_equiv
   _atom_site_type_symbol
   Sm1        1.0     0.672806     0.339145     0.528394    Uiso  ? Sm
   Sm2        1.0     0.333623     0.668604     0.028418    Uiso  ? Sm
   Sm3        1.0     0.340259     0.672912     0.471989    Uiso  ? Sm
   Sm4        1.0     0.667959     0.336651     0.972321    Uiso  ? Sm
   Sm5        1.0     0.663516     0.335151     0.673021    Uiso  ? Sm
   Sm6        1.0     0.331380     0.660495     0.172960    Uiso  ? Sm
   Sm7        1.0     0.333954     0.662094     0.327081    Uiso  ? Sm
   Sm8        1.0     0.666377     0.336378     0.826973    Uiso  ? Sm
   Co1        1.0     0.014644     0.013447     0.500240    Uiso  ? Co
   Co2        1.0     0.003050     0.006994     0.000180    Uiso  ? Co
   Co3        1.0     0.020715     0.008714     0.668675    Uiso  ? Co
   Co4        1.0     0.007801     0.019754     0.168599    Uiso  ? Co
   Co5        1.0     0.996318     0.997196     0.331282    Uiso  ? Co
   Co6        1.0     0.985360     0.980356     0.831332    Uiso  ? Co
   Co7        1.0     0.672342     0.326875     0.331966    Uiso  ? Co
   Co8        1.0     0.348117     0.693841     0.831851    Uiso  ? Co
   Co9        1.0     0.305361     0.660984     0.667915    Uiso  ? Co
   Co10       1.0     0.654037     0.300028     0.167966    Uiso  ? Co
   Co11       1.0     0.665545     0.835480     0.747665    Uiso  ? Co
   Co12       1.0     0.833992     0.663972     0.248398    Uiso  ? Co
   Co13       1.0     0.833055     0.163064     0.250575    Uiso  ? Co
   Co14       1.0     0.165611     0.835196     0.750239    Uiso  ? Co
   Co15       1.0     0.165093     0.335799     0.751403    Uiso  ? Co
   Co16       1.0     0.334588     0.163238     0.250822    Uiso  ? Co
   Co17       1.0     0.162430     0.841254     0.586324    Uiso  ? Co
   Co18       1.0     0.161871     0.330157     0.587992    Uiso  ? Co
   Co19       1.0     0.833636     0.158126     0.086480    Uiso  ? Co
   Co20       1.0     0.325332     0.158171     0.087270    Uiso  ? Co
   Co21       1.0     0.330230     0.162005     0.411696    Uiso  ? Co
   Co22       1.0     0.839599     0.163171     0.413103    Uiso  ? Co
   Co23       1.0     0.167894     0.839691     0.913118    Uiso  ? Co
   Co24       1.0     0.670714     0.839912     0.913216    Uiso  ? Co
   Co25       1.0     0.166775     0.335104     0.910387    Uiso  ? Co
   Ni1        1.0     0.835141     0.662651     0.413096    Uiso  ? Ni
   Ni2        1.0     0.829844     0.658409     0.088834    Uiso  ? Ni
   Ni3        1.0     0.661030     0.834984     0.588220    Uiso  ? Ni
