
#======================================================================
# CRYSTAL DATA
#----------------------------------------------------------------------
data_VESTA_phase_1

_chemical_name_common                  'Sm8 Co28'
_cell_length_a                         4.956506
_cell_length_b                         5.038724
_cell_length_c                         24.186838
_cell_angle_alpha                      90.000000
_cell_angle_beta                       90.000000
_cell_angle_gamma                      119.340080
_cell_volume                           526.569526
_space_group_name_H-M_alt              'P 1'
_space_group_IT_number                 1

loop_
_space_group_symop_operation_xyz
   'x, y, z'

loop_
   _atom_site_label
   _atom_site_occupancy
   _atom_site_fract_x
   _atom_site_fract_y
   _atom_site_fract_z
   _atom_site_adp_type
   _atom_site_U_iso_or_equiv
   _atom_site_type_symbol
   Sm1        1.0     0.670872     0.336015     0.528673    Uiso  ? Sm
   Sm2        1.0     0.334666     0.669387     0.028431    Uiso  ? Sm
   Sm3        1.0     0.338232     0.668575     0.471885    Uiso  ? Sm
   Sm4        1.0     0.668011     0.336993     0.972348    Uiso  ? Sm
   Sm5        1.0     0.664694     0.338185     0.673009    Uiso  ? Sm
   Sm6        1.0     0.331686     0.660086     0.173095    Uiso  ? Sm
   Sm7        1.0     0.333859     0.660707     0.327149    Uiso  ? Sm
   Sm8        1.0     0.665803     0.336615     0.827002    Uiso  ? Sm
   Co1        1.0     0.011373     0.004515     0.499602    Uiso  ? Co
   Co2        1.0     0.003526     0.007261     0.000326    Uiso  ? Co
   Co3        1.0     0.992116     0.980115     0.669034    Uiso  ? Co
   Co4        1.0     0.011153     0.020958     0.168686    Uiso  ? Co
   Co5        1.0     0.999195     0.996642     0.331187    Uiso  ? Co
   Co6        1.0     0.002594     0.006488     0.831330    Uiso  ? Co
   Co7        1.0     0.669204     0.324875     0.332013    Uiso  ? Co
   Co8        1.0     0.329377     0.667125     0.832005    Uiso  ? Co
   Co9        1.0     0.337056     0.697075     0.668023    Uiso  ? Co
   Co10       1.0     0.651417     0.297765     0.168109    Uiso  ? Co
   Co11       1.0     0.664865     0.836600     0.750212    Uiso  ? Co
   Co12       1.0     0.834224     0.663359     0.248441    Uiso  ? Co
   Co13       1.0     0.833052     0.162627     0.250734    Uiso  ? Co
   Co14       1.0     0.165728     0.835983     0.750581    Uiso  ? Co
   Co15       1.0     0.164999     0.336688     0.747933    Uiso  ? Co
   Co16       1.0     0.334734     0.162796     0.250918    Uiso  ? Co
   Co17       1.0     0.162604     0.846489     0.586303    Uiso  ? Co
   Co18       1.0     0.833995     0.158228     0.086788    Uiso  ? Co
   Co19       1.0     0.325671     0.158092     0.087036    Uiso  ? Co
   Co20       1.0     0.330698     0.159309     0.412030    Uiso  ? Co
   Co21       1.0     0.837553     0.159620     0.412889    Uiso  ? Co
   Co22       1.0     0.166998     0.838886     0.912769    Uiso  ? Co
   Co23       1.0     0.669631     0.839497     0.912399    Uiso  ? Co
   Co24       1.0     0.165130     0.333202     0.911872    Uiso  ? Co
   Ni1        1.0     0.834324     0.660381     0.412846    Uiso  ? Ni
   Ni2        1.0     0.830172     0.658541     0.089179    Uiso  ? Ni
   Ni3        1.0     0.665017     0.840288     0.586235    Uiso  ? Ni
   Ni4        1.0     0.165770     0.340032     0.588927    Uiso  ? Ni
