
#======================================================================
# CRYSTAL DATA
#----------------------------------------------------------------------
data_VESTA_phase_1

_chemical_name_common                  'Sm12 Co42                             '
_cell_length_a                         5.040418
_cell_length_b                         5.040319
_cell_length_c                         36.396458
_cell_angle_alpha                      89.998970
_cell_angle_beta                       90.001350
_cell_angle_gamma                      120.000267
_cell_volume                           800.779908
_space_group_name_H-M_alt              'P 1'
_space_group_IT_number                 1

loop_
_space_group_symop_operation_xyz
   'x, y, z'

loop_
   _atom_site_label
   _atom_site_occupancy
   _atom_site_fract_x
   _atom_site_fract_y
   _atom_site_fract_z
   _atom_site_adp_type
   _atom_site_U_iso_or_equiv
   _atom_site_type_symbol
   Sm1        1.0     0.999933     0.999634     0.946976    Uiso  ? Sm
   Sm2        1.0     0.333167     0.666058     0.719714    Uiso  ? Sm
   Sm3        1.0     0.666207     0.333257     0.280292    Uiso  ? Sm
   Sm4        1.0     0.999529     0.999952     0.052975    Uiso  ? Sm
   Sm5        1.0     0.333804     0.666971     0.613710    Uiso  ? Sm
   Sm6        1.0     0.667094     0.333857     0.386353    Uiso  ? Sm
   Sm7        1.0     0.999578     0.997434     0.851576    Uiso  ? Sm
   Sm8        1.0     0.333399     0.664230     0.815110    Uiso  ? Sm
   Sm9        1.0     0.664198     0.333401     0.184856    Uiso  ? Sm
   Sm10       1.0     0.997304     0.999487     0.148363    Uiso  ? Sm
   Sm11       1.0     0.336566     0.669568     0.518283    Uiso  ? Sm
   Sm12       1.0     0.669649     0.336542     0.481795    Uiso  ? Sm
   Co1        1.0     0.666495     0.331064     0.833355    Uiso  ? Co
   Co2        1.0     0.330974     0.666465     0.166600    Uiso  ? Co
   Co3        1.0     0.002788     0.002750     0.500039    Uiso  ? Co
   Co4        1.0     0.014581     0.029424     0.722282    Uiso  ? Co
   Co5        1.0     0.318551     0.681757     0.944413    Uiso  ? Co
   Co6        1.0     0.681677     0.318502     0.055522    Uiso  ? Co
   Co7        1.0     0.029562     0.014652     0.277729    Uiso  ? Co
   Co8        1.0     0.303921     0.651931     0.388915    Uiso  ? Co
   Co9        1.0     0.651947     0.303832     0.611146    Uiso  ? Co
   Co10       1.0     0.681194     0.317955     0.944946    Uiso  ? Co
   Co11       1.0     0.651824     0.303273     0.721729    Uiso  ? Co
   Co12       1.0     0.303411     0.651895     0.278285    Uiso  ? Co
   Co13       1.0     0.317795     0.681313     0.054978    Uiso  ? Co
   Co14       1.0     0.015322     0.029535     0.611695    Uiso  ? Co
   Co15       1.0     0.029671     0.015400     0.388368    Uiso  ? Co
   Co16       1.0     0.499670     0.999794    -0.000007    Uiso  ? Co
   Co17       1.0     0.999754     0.499800     0.999921    Uiso  ? Co
   Co18       1.0     0.166661     0.333494     0.333303    Uiso  ? Co
   Co19       1.0     0.166690     0.833552     0.333363    Uiso  ? Co
   Co20       1.0     0.833440     0.166517     0.666685    Uiso  ? Co
   Co21       1.0     0.333398     0.166507     0.666728    Uiso  ? Co
   Co22       1.0     0.995985     0.497368     0.890985    Uiso  ? Co
   Co23       1.0     0.501599     0.003929     0.890944    Uiso  ? Co
   Co24       1.0     0.499558     0.499035     0.892764    Uiso  ? Co
   Co25       1.0     0.337054     0.167690     0.775723    Uiso  ? Co
   Co26       1.0     0.833418     0.665481     0.773917    Uiso  ? Co
   Co27       1.0     0.831404     0.168490     0.775744    Uiso  ? Co
   Co28       1.0     0.665535     0.833474     0.226073    Uiso  ? Co
   Co29       1.0     0.167752     0.337098     0.224271    Uiso  ? Co
   Co30       1.0     0.168590     0.831435     0.224251    Uiso  ? Co
   Co31       1.0     0.003870     0.501569     0.108983    Uiso  ? Co
   Co32       1.0     0.497238     0.995945     0.108951    Uiso  ? Co
   Co33       1.0     0.498784     0.499502     0.107185    Uiso  ? Co
   Co34       1.0     0.329708     0.164782     0.557673    Uiso  ? Co
   Co35       1.0     0.834884     0.667717     0.559501    Uiso  ? Co
   Co36       1.0     0.836565     0.165782     0.557689    Uiso  ? Co
   Co37       1.0     0.667775     0.834839     0.440574    Uiso  ? Co
   Co38       1.0     0.164866     0.329636     0.442402    Uiso  ? Co
   Co39       1.0     0.165852     0.836586     0.442369    Uiso  ? Co
   Zn1        1.0     0.666668     0.833532     0.333303    Uiso  ? Zn
   Zn2        1.0     0.499711     0.499784    -0.000030    Uiso  ? Zn
   Zn3        1.0     0.833431     0.666524     0.666731    Uiso  ? Zn
