
#======================================================================
# CRYSTAL DATA
#----------------------------------------------------------------------
data_VESTA_phase_1

_chemical_name_common                  'Sm12 Co42                             '
_cell_length_a                         5.041884
_cell_length_b                         5.084910
_cell_length_c                         36.922157
_cell_angle_alpha                      89.997307
_cell_angle_beta                       89.984688
_cell_angle_gamma                      120.268623
_cell_volume                           817.545417
_space_group_name_H-M_alt              'P 1'
_space_group_IT_number                 1

loop_
_space_group_symop_operation_xyz
   'x, y, z'

loop_
   _atom_site_label
   _atom_site_occupancy
   _atom_site_fract_x
   _atom_site_fract_y
   _atom_site_fract_z
   _atom_site_adp_type
   _atom_site_U_iso_or_equiv
   _atom_site_type_symbol
   Sm1        1.0     0.000783     0.000477     0.945303    Uiso  ? Sm
   Sm2        1.0     0.333348     0.666610     0.724276    Uiso  ? Sm
   Sm3        1.0     0.666580     0.333341     0.275710    Uiso  ? Sm
   Sm4        1.0     0.999240     0.999562     0.054662    Uiso  ? Sm
   Sm5        1.0     0.333807     0.666918     0.610214    Uiso  ? Sm
   Sm6        1.0     0.666187     0.333053     0.389813    Uiso  ? Sm
   Sm7        1.0     0.000685     0.000258     0.852197    Uiso  ? Sm
   Sm8        1.0     0.333554     0.666687     0.817000    Uiso  ? Sm
   Sm9        1.0     0.666438     0.333263     0.183001    Uiso  ? Sm
   Sm10       1.0    -0.000670    -0.000274     0.147784    Uiso  ? Sm
   Sm11       1.0     0.333913     0.667078     0.517499    Uiso  ? Sm
   Sm12       1.0     0.666137     0.332911     0.482566    Uiso  ? Sm
   Co1        1.0     0.666857     0.333258     0.834646    Uiso  ? Co
   Co2        1.0     0.333139     0.666691     0.165328    Uiso  ? Co
   Co3        1.0     0.000001    -0.000022     0.500030    Uiso  ? Co
   Co4        1.0     0.002427     0.001542     0.725538    Uiso  ? Co
   Co5        1.0     0.310919     0.655441     0.943715    Uiso  ? Co
   Co6        1.0     0.689076     0.344743     0.056272    Uiso  ? Co
   Co7        1.0    -0.002552    -0.001662     0.274460    Uiso  ? Co
   Co8        1.0     0.335142     0.667776     0.390999    Uiso  ? Co
   Co9        1.0     0.664809     0.332232     0.609035    Uiso  ? Co
   Co10       1.0     0.692119     0.346317     0.944211    Uiso  ? Co
   Co11       1.0     0.664251     0.331658     0.725138    Uiso  ? Co
   Co12       1.0     0.335742     0.668353     0.274855    Uiso  ? Co
   Co13       1.0     0.307869     0.653533     0.055750    Uiso  ? Co
   Co14       1.0     0.002927     0.001516     0.609411    Uiso  ? Co
   Co15       1.0     0.997058     0.998443     0.390608    Uiso  ? Co
   Co16       1.0     0.000086     0.500083    -0.000016    Uiso  ? Co
   Co17       1.0     0.996196     0.498086     0.890840    Uiso  ? Co
   Co18       1.0     0.501642     0.003966     0.892526    Uiso  ? Co
   Co19       1.0     0.501372     0.497883     0.892515    Uiso  ? Co
   Co20       1.0     0.337981     0.169081     0.777154    Uiso  ? Co
   Co21       1.0     0.831761     0.663274     0.776878    Uiso  ? Co
   Co22       1.0     0.831421     0.168551     0.776916    Uiso  ? Co
   Co23       1.0     0.662001     0.830892     0.222828    Uiso  ? Co
   Co24       1.0     0.168203     0.336730     0.223110    Uiso  ? Co
   Co25       1.0     0.168561     0.831404     0.223066    Uiso  ? Co
   Co26       1.0     0.003771     0.501931     0.109141    Uiso  ? Co
   Co27       1.0     0.498466     0.996117     0.107446    Uiso  ? Co
   Co28       1.0     0.498639     0.502152     0.107472    Uiso  ? Co
   Co29       1.0     0.329695     0.165205     0.557400    Uiso  ? Co
   Co30       1.0     0.835820     0.670983     0.557664    Uiso  ? Co
   Co31       1.0     0.836005     0.164952     0.557656    Uiso  ? Co
   Co32       1.0     0.670284     0.834821     0.442635    Uiso  ? Co
   Co33       1.0     0.164292     0.329073     0.442376    Uiso  ? Co
   Co34       1.0     0.163986     0.835101     0.442391    Uiso  ? Co
   Zn1        1.0     0.666274     0.833142     0.332725    Uiso  ? Zn
   Zn2        1.0     0.500034     0.500083    -0.000022    Uiso  ? Zn
   Zn3        1.0     0.833810     0.666906     0.667283    Uiso  ? Zn
   Zn4        1.0     0.833819     0.166838     0.667269    Uiso  ? Zn
   Zn5        1.0     0.333808     0.166893     0.667279    Uiso  ? Zn
   Zn6        1.0     0.166129     0.332990     0.332721    Uiso  ? Zn
   Zn7        1.0     0.166124     0.833162     0.332737    Uiso  ? Zn
   Zn8        1.0     0.500034    -0.000001    -0.000011    Uiso  ? Zn
