
#======================================================================
# CRYSTAL DATA
#----------------------------------------------------------------------
data_VESTA_phase_1

_chemical_name_common                  'Sm1 Co5                               '
_cell_length_a                         10.261121
_cell_length_b                         4.944522
_cell_length_c                         8.048808
_cell_angle_alpha                      89.999817
_cell_angle_beta                       89.999603
_cell_angle_gamma                      119.524422
_cell_volume                           355.338832
_space_group_name_H-M_alt              'P 1'
_space_group_IT_number                 1

loop_
_space_group_symop_operation_xyz
   'x, y, z'

loop_
   _atom_site_label
   _atom_site_occupancy
   _atom_site_fract_x
   _atom_site_fract_y
   _atom_site_fract_z
   _atom_site_adp_type
   _atom_site_U_iso_or_equiv
   _atom_site_type_symbol
   Sm1        1.0     0.000274     0.984967     0.998972    Uiso  ? Sm
   Sm2        1.0     0.499540     0.014689     0.002957    Uiso  ? Sm
   Sm3        1.0     0.000307     0.984995     0.501031    Uiso  ? Sm
   Sm4        1.0     0.499516     0.014668     0.497041    Uiso  ? Sm
   Co1        1.0     0.173931     0.660507     0.001973    Uiso  ? Co
   Co2        1.0     0.317770     0.333018     0.997258    Uiso  ? Co
   Co3        1.0     0.679111     0.696998     0.997626    Uiso  ? Co
   Co4        1.0     0.827924     0.314648     0.000827    Uiso  ? Co
   Co5        1.0     0.173926     0.660496     0.498027    Uiso  ? Co
   Co6        1.0     0.317762     0.333020     0.502747    Uiso  ? Co
   Co7        1.0     0.679146     0.697031     0.502369    Uiso  ? Co
   Co8        1.0     0.827921     0.314634     0.499170    Uiso  ? Co
   Co9        1.0     0.743030     0.993183     0.250002    Uiso  ? Co
   Co10       1.0     0.255883     0.503452     0.250006    Uiso  ? Co
   Co11       1.0     0.251008     0.004250     0.749994    Uiso  ? Co
   Co12       1.0     0.251447     0.507706     0.749999    Uiso  ? Co
   Co13       1.0     0.750799     0.002186     0.749994    Uiso  ? Co
   Ni1        1.0     0.498648     0.506906     0.250012    Uiso  ? Ni
   Mn1        1.0     0.497957     0.513877     0.749983    Uiso  ? Mn
   Mn2        1.0     0.999900     0.470154     0.250005    Uiso  ? Mn
   Mn3        1.0     0.003955     0.489760     0.749995    Uiso  ? Mn
   Mn4        1.0     0.745791     0.496404     0.249998    Uiso  ? Mn
   Mn5        1.0     0.254627     0.003793     0.250016    Uiso  ? Mn
   Mn6        1.0     0.749826     0.498659     0.749998    Uiso  ? Mn
