
#======================================================================
# CRYSTAL DATA
#----------------------------------------------------------------------
data_VESTA_phase_1

_chemical_name_common                  'Sm12 Co42'
_cell_length_a                         5.024657
_cell_length_b                         5.024662
_cell_length_c                         36.208061
_cell_angle_alpha                      90.000000
_cell_angle_beta                       90.000000
_cell_angle_gamma                      119.999718
_cell_volume                           791.681312
_space_group_name_H-M_alt              'P 1'
_space_group_IT_number                 1

loop_
_space_group_symop_operation_xyz
   'x, y, z'

loop_
   _atom_site_label
   _atom_site_occupancy
   _atom_site_fract_x
   _atom_site_fract_y
   _atom_site_fract_z
   _atom_site_adp_type
   _atom_site_U_iso_or_equiv
   _atom_site_type_symbol
   Sm1        1.0    -0.000018     0.000001     0.948817    Uiso  ? Sm
   Sm2        1.0     0.333344     0.666660     0.717693    Uiso  ? Sm
   Sm3        1.0     0.666695     0.333348     0.281809    Uiso  ? Sm
   Sm4        1.0    -0.000014    -0.000000     0.051341    Uiso  ? Sm
   Sm5        1.0     0.333352     0.666643     0.615255    Uiso  ? Sm
   Sm6        1.0     0.666660     0.333339     0.384262    Uiso  ? Sm
   Sm7        1.0     0.000001     0.000002     0.852264    Uiso  ? Sm
   Sm8        1.0     0.333333     0.666671     0.815071    Uiso  ? Sm
   Sm9        1.0     0.666657     0.333339     0.185148    Uiso  ? Sm
   Sm10       1.0    -0.000017     0.000006     0.148182    Uiso  ? Sm
   Sm11       1.0     0.333332     0.666676     0.518827    Uiso  ? Sm
   Sm12       1.0     0.666664     0.333338     0.481651    Uiso  ? Sm
   Co1        1.0     0.666663     0.333338     0.832746    Uiso  ? Co
   Co2        1.0     0.333328     0.666671     0.166496    Uiso  ? Co
   Co3        1.0     0.000001     0.000003     0.499153    Uiso  ? Co
   Co4        1.0     0.333387     0.666620     0.945422    Uiso  ? Co
   Co5        1.0     0.666665     0.333303     0.054419    Uiso  ? Co
   Co6        1.0     0.000007     0.000006     0.278372    Uiso  ? Co
   Co7        1.0     0.666648     0.333324     0.611677    Uiso  ? Co
   Co8        1.0     0.666579     0.333384     0.945822    Uiso  ? Co
   Co9        1.0     0.666678     0.333316     0.721672    Uiso  ? Co
   Co10       1.0     0.333376     0.666689     0.279332    Uiso  ? Co
   Co11       1.0     0.333300     0.666693     0.054503    Uiso  ? Co
   Co12       1.0     0.000062     0.999931     0.612825    Uiso  ? Co
   Co13       1.0     0.000018     0.000006     0.388167    Uiso  ? Co
   Co14       1.0     0.499811    -0.000342     0.000047    Uiso  ? Co
   Co15       1.0     0.499827     0.500161     0.000057    Uiso  ? Co
   Co16       1.0     0.000327     0.500175     0.000046    Uiso  ? Co
   Co17       1.0     0.165633     0.331276     0.333086    Uiso  ? Co
   Co18       1.0     0.165642     0.834368     0.333089    Uiso  ? Co
   Co19       1.0     0.668742     0.834381     0.333089    Uiso  ? Co
   Co20       1.0     0.832224     0.664431     0.666542    Uiso  ? Co
   Co21       1.0     0.832233     0.167765     0.666533    Uiso  ? Co
   Co22       1.0     0.335567     0.167774     0.666541    Uiso  ? Co
   Co23       1.0     0.997270     0.498630     0.891889    Uiso  ? Co
   Co24       1.0     0.501370     0.002728     0.891890    Uiso  ? Co
   Co25       1.0     0.501376     0.498625     0.891880    Uiso  ? Co
   Co26       1.0     0.334171     0.167085     0.775266    Uiso  ? Co
   Co27       1.0     0.832920     0.665834     0.775266    Uiso  ? Co
   Co28       1.0     0.832927     0.167079     0.775266    Uiso  ? Co
   Co29       1.0     0.663359     0.831699     0.225072    Uiso  ? Co
   Co30       1.0     0.168320     0.336650     0.225072    Uiso  ? Co
   Co31       1.0     0.168322     0.831675     0.225073    Uiso  ? Co
   Co32       1.0     0.001731     0.500870     0.108194    Uiso  ? Co
   Co33       1.0     0.499109     0.998242     0.108195    Uiso  ? Co
   Co34       1.0     0.499114     0.500885     0.108193    Uiso  ? Co
   Co35       1.0     0.329449     0.164743     0.558463    Uiso  ? Co
   Co36       1.0     0.835264     0.670536     0.558464    Uiso  ? Co
   Co37       1.0     0.835273     0.164731     0.558472    Uiso  ? Co
   Co38       1.0     0.667608     0.833818     0.441773    Uiso  ? Co
   Co39       1.0     0.166182     0.332392     0.441773    Uiso  ? Co
   Co40       1.0     0.166181     0.833821     0.441775    Uiso  ? Co
   Fe1        1.0     0.333312     0.666670     0.387343    Uiso  ? Fe
   Fe2        1.0     0.000035    -0.000009     0.720730    Uiso  ? Fe
