
#======================================================================
# CRYSTAL DATA
#----------------------------------------------------------------------
data_VESTA_phase_1

_chemical_name_common                  'Sm12 Co42'
_cell_length_a                         4.987560
_cell_length_b                         4.987560
_cell_length_c                         36.876755
_cell_angle_alpha                      90.000000
_cell_angle_beta                       90.000000
_cell_angle_gamma                      120.000000
_cell_volume                           794.437326
_space_group_name_H-M_alt              'P 1'
_space_group_IT_number                 1

loop_
_space_group_symop_operation_xyz
   'x, y, z'

loop_
   _atom_site_label
   _atom_site_occupancy
   _atom_site_fract_x
   _atom_site_fract_y
   _atom_site_fract_z
   _atom_site_adp_type
   _atom_site_U_iso_or_equiv
   _atom_site_type_symbol
   Sm1        1.0     0.000000     0.000000     0.948962    Uiso  ? Sm
   Sm2        1.0     0.333333     0.666667     0.717693    Uiso  ? Sm
   Sm3        1.0     0.666667     0.333333     0.282538    Uiso  ? Sm
   Sm4        1.0     0.000000     0.000000     0.051030    Uiso  ? Sm
   Sm5        1.0     0.333333     0.666667     0.615676    Uiso  ? Sm
   Sm6        1.0     0.666667     0.333333     0.384486    Uiso  ? Sm
   Sm7        1.0     0.000000     0.000000     0.852245    Uiso  ? Sm
   Sm8        1.0     0.333333     0.666667     0.814386    Uiso  ? Sm
   Sm9        1.0     0.666667     0.333333     0.185541    Uiso  ? Sm
   Sm10       1.0     0.000000     0.000000     0.147823    Uiso  ? Sm
   Sm11       1.0     0.333333     0.666667     0.518935    Uiso  ? Sm
   Sm12       1.0     0.666667     0.333333     0.481077    Uiso  ? Sm
   Co1        1.0     0.666667     0.333333     0.833326    Uiso  ? Co
   Co2        1.0     0.333333     0.666667     0.166818    Uiso  ? Co
   Co3        1.0     0.000000     0.000000     0.499990    Uiso  ? Co
   Co4        1.0     0.000000     0.000000     0.720336    Uiso  ? Co
   Co5        1.0     0.333333     0.666667     0.946350    Uiso  ? Co
   Co6        1.0     0.666667     0.333333     0.053638    Uiso  ? Co
   Co7        1.0     0.000000     0.000000     0.279548    Uiso  ? Co
   Co8        1.0     0.333333     0.666667     0.386838    Uiso  ? Co
   Co9        1.0     0.666667     0.333333     0.613008    Uiso  ? Co
   Co10       1.0     0.666667     0.333333     0.946393    Uiso  ? Co
   Co11       1.0     0.666667     0.333333     0.720263    Uiso  ? Co
   Co12       1.0     0.333333     0.666667     0.053561    Uiso  ? Co
   Co13       1.0     0.000000     0.000000     0.613063    Uiso  ? Co
   Co14       1.0     0.000000     0.000000     0.386921    Uiso  ? Co
   Co15       1.0     0.500052     0.000105    -0.000005    Uiso  ? Co
   Co16       1.0     0.500052     0.499948    -0.000005    Uiso  ? Co
   Co17       1.0    -0.000105     0.499948    -0.000005    Uiso  ? Co
   Co18       1.0     0.166077     0.332153     0.333412    Uiso  ? Co
   Co19       1.0     0.166077     0.833923     0.333412    Uiso  ? Co
   Co20       1.0     0.667847     0.833923     0.333412    Uiso  ? Co
   Co21       1.0     0.833339     0.666677     0.666665    Uiso  ? Co
   Co22       1.0     0.833339     0.166661     0.666665    Uiso  ? Co
   Co23       1.0     0.333323     0.166661     0.666665    Uiso  ? Co
   Co24       1.0    -0.002468     0.498766     0.892981    Uiso  ? Co
   Co25       1.0     0.501234     0.002468     0.892981    Uiso  ? Co
   Co26       1.0     0.501234     0.498766     0.892981    Uiso  ? Co
   Co27       1.0     0.335749     0.167875     0.773655    Uiso  ? Co
   Co28       1.0     0.832126     0.664251     0.773655    Uiso  ? Co
   Co29       1.0     0.832126     0.167875     0.773655    Uiso  ? Co
   Co30       1.0     0.665899     0.832949     0.226230    Uiso  ? Co
   Co31       1.0     0.167051     0.334101     0.226230    Uiso  ? Co
   Co32       1.0     0.167051     0.832949     0.226230    Uiso  ? Co
   Co33       1.0     0.002784     0.501392     0.107015    Uiso  ? Co
   Co34       1.0     0.498608    -0.002784     0.107015    Uiso  ? Co
   Co35       1.0     0.498608     0.501392     0.107015    Uiso  ? Co
   Co36       1.0     0.330860     0.165430     0.559678    Uiso  ? Co
   Co37       1.0     0.834570     0.669140     0.559678    Uiso  ? Co
   Co38       1.0     0.834570     0.165430     0.559678    Uiso  ? Co
   Co39       1.0     0.668889     0.834444     0.440330    Uiso  ? Co
   Co40       1.0     0.165556     0.331111     0.440330    Uiso  ? Co
   Co41       1.0     0.165556     0.834444     0.440330    Uiso  ? Co
   Fe1        1.0     0.333333     0.666667     0.279677    Uiso  ? Fe
