
#======================================================================
# CRYSTAL DATA
#----------------------------------------------------------------------
data_VESTA_phase_1

_chemical_name_common                  'Sm12 Co42'
_cell_length_a                         5.006193
_cell_length_b                         5.016976
_cell_length_c                         36.405460
_cell_angle_alpha                      90.000000
_cell_angle_beta                       90.000000
_cell_angle_gamma                      120.000000
_cell_volume                           791.857026
_space_group_name_H-M_alt              'P 1'
_space_group_IT_number                 1

loop_
_space_group_symop_operation_xyz
   'x, y, z'

loop_
   _atom_site_label
   _atom_site_occupancy
   _atom_site_fract_x
   _atom_site_fract_y
   _atom_site_fract_z
   _atom_site_adp_type
   _atom_site_U_iso_or_equiv
   _atom_site_type_symbol
   Sm1        1.0     0.000234     0.000117     0.948717    Uiso  ? Sm
   Sm2        1.0     0.333099     0.666550     0.717949    Uiso  ? Sm
   Sm3        1.0     0.666810     0.333405     0.281345    Uiso  ? Sm
   Sm4        1.0    -0.000057    -0.000028     0.051175    Uiso  ? Sm
   Sm5        1.0     0.333390     0.666695     0.615492    Uiso  ? Sm
   Sm6        1.0     0.666523     0.333262     0.385322    Uiso  ? Sm
   Sm7        1.0     0.000061     0.000031     0.851935    Uiso  ? Sm
   Sm8        1.0     0.333272     0.666636     0.814732    Uiso  ? Sm
   Sm9        1.0     0.666590     0.333295     0.184879    Uiso  ? Sm
   Sm10       1.0    -0.000478    -0.000239     0.147778    Uiso  ? Sm
   Sm11       1.0     0.333812     0.666906     0.518888    Uiso  ? Sm
   Sm12       1.0     0.666744     0.333372     0.481788    Uiso  ? Sm
   Co1        1.0     0.666667     0.333333     0.833333    Uiso  ? Co
   Co2        1.0     0.333060     0.666530     0.166346    Uiso  ? Co
   Co3        1.0     0.000273     0.000137     0.500321    Uiso  ? Co
   Co4        1.0     0.001087     0.000543     0.721168    Uiso  ? Co
   Co5        1.0     0.332246     0.666123     0.945499    Uiso  ? Co
   Co6        1.0     0.667645     0.333823     0.054397    Uiso  ? Co
   Co7        1.0    -0.001249    -0.000625     0.278771    Uiso  ? Co
   Co8        1.0     0.334582     0.667291     0.387896    Uiso  ? Co
   Co9        1.0     0.665688     0.332844     0.612269    Uiso  ? Co
   Co10       1.0     0.668228     0.334114     0.945649    Uiso  ? Co
   Co11       1.0     0.665105     0.332553     0.721018    Uiso  ? Co
   Co12       1.0     0.333796     0.666898     0.278666    Uiso  ? Co
   Co13       1.0     0.332229     0.666115     0.054204    Uiso  ? Co
   Co14       1.0     0.001104     0.000552     0.612463    Uiso  ? Co
   Co15       1.0    -0.000463    -0.000232     0.388000    Uiso  ? Co
   Co16       1.0     0.500180     0.000135    -0.000043    Uiso  ? Co
   Co17       1.0     0.500180     0.500044    -0.000043    Uiso  ? Co
   Co18       1.0     0.000228     0.500114    -0.000020    Uiso  ? Co
   Co19       1.0     0.166667     0.333333     0.333333    Uiso  ? Co
   Co20       1.0     0.166667     0.833333     0.333333    Uiso  ? Co
   Co21       1.0     0.833154     0.666531     0.666710    Uiso  ? Co
   Co22       1.0     0.833154     0.166622     0.666710    Uiso  ? Co
   Co23       1.0     0.333105     0.166553     0.666687    Uiso  ? Co
   Co24       1.0     0.997969     0.498984     0.891833    Uiso  ? Co
   Co25       1.0     0.501081     0.002192     0.891955    Uiso  ? Co
   Co26       1.0     0.501081     0.498889     0.891955    Uiso  ? Co
   Co27       1.0     0.335365     0.167682     0.774834    Uiso  ? Co
   Co28       1.0     0.832252     0.664475     0.774711    Uiso  ? Co
   Co29       1.0     0.832252     0.167777     0.774711    Uiso  ? Co
   Co30       1.0     0.665389     0.832694     0.224886    Uiso  ? Co
   Co31       1.0     0.167852     0.335208     0.224651    Uiso  ? Co
   Co32       1.0     0.167852     0.832644     0.224651    Uiso  ? Co
   Co33       1.0     0.001835     0.500918     0.107965    Uiso  ? Co
   Co34       1.0     0.498599     0.997559     0.107851    Uiso  ? Co
   Co35       1.0     0.498599     0.501040     0.107851    Uiso  ? Co
   Co36       1.0     0.331498     0.165749     0.558702    Uiso  ? Co
   Co37       1.0     0.834734     0.669107     0.558816    Uiso  ? Co
   Co38       1.0     0.834734     0.165627     0.558816    Uiso  ? Co
   Co39       1.0     0.667945     0.833972     0.441780    Uiso  ? Co
   Co40       1.0     0.165481     0.331458     0.442016    Uiso  ? Co
   Co41       1.0     0.165481     0.834023     0.442016    Uiso  ? Co
   Fe1        1.0     0.666667     0.833333     0.333333    Uiso  ? Fe
