
#======================================================================
# CRYSTAL DATA
#----------------------------------------------------------------------
data_VESTA_phase_1

_chemical_name_common                  'Sm12 Co42'
_cell_length_a                         5.047371
_cell_length_b                         5.047371
_cell_length_c                         36.085899
_cell_angle_alpha                      90.000000
_cell_angle_beta                       90.000000
_cell_angle_gamma                      120.000000
_cell_volume                           796.156795
_space_group_name_H-M_alt              'P 1'
_space_group_IT_number                 1

loop_
_space_group_symop_operation_xyz
   'x, y, z'

loop_
   _atom_site_label
   _atom_site_occupancy
   _atom_site_fract_x
   _atom_site_fract_y
   _atom_site_fract_z
   _atom_site_adp_type
   _atom_site_U_iso_or_equiv
   _atom_site_type_symbol
   Sm1        1.0     0.000000     0.000000     0.948897    Uiso  ? Sm
   Sm2        1.0     0.333333     0.666667     0.717770    Uiso  ? Sm
   Sm3        1.0     0.666667     0.333333     0.282230    Uiso  ? Sm
   Sm4        1.0     0.000000     0.000000     0.051103    Uiso  ? Sm
   Sm5        1.0     0.333333     0.666667     0.615563    Uiso  ? Sm
   Sm6        1.0     0.666667     0.333333     0.384437    Uiso  ? Sm
   Sm7        1.0     0.000000     0.000000     0.851911    Uiso  ? Sm
   Sm8        1.0     0.333333     0.666667     0.814756    Uiso  ? Sm
   Sm9        1.0     0.666667     0.333333     0.185244    Uiso  ? Sm
   Sm10       1.0     0.000000     0.000000     0.148089    Uiso  ? Sm
   Sm11       1.0     0.333333     0.666667     0.518578    Uiso  ? Sm
   Sm12       1.0     0.666667     0.333333     0.481422    Uiso  ? Sm
   Co1        1.0     0.666667     0.333333     0.833333    Uiso  ? Co
   Co2        1.0     0.333333     0.666667     0.166667    Uiso  ? Co
   Co3        1.0     0.000000     0.000000     0.500000    Uiso  ? Co
   Co4        1.0     0.666667     0.333333     0.945540    Uiso  ? Co
   Co5        1.0     0.666667     0.333333     0.721127    Uiso  ? Co
   Co6        1.0     0.333333     0.666667     0.278873    Uiso  ? Co
   Co7        1.0     0.333333     0.666667     0.054460    Uiso  ? Co
   Co8        1.0     0.000000     0.000000     0.612206    Uiso  ? Co
   Co9        1.0     0.000000     0.000000     0.387794    Uiso  ? Co
   Co10       1.0     0.500000     0.000000     0.000000    Uiso  ? Co
   Co11       1.0     0.500000     0.500000     0.000000    Uiso  ? Co
   Co12       1.0     0.000000     0.500000     0.000000    Uiso  ? Co
   Co13       1.0     0.166667     0.333333     0.333333    Uiso  ? Co
   Co14       1.0     0.166667     0.833333     0.333333    Uiso  ? Co
   Co15       1.0     0.666667     0.833333     0.333333    Uiso  ? Co
   Co16       1.0     0.833333     0.666667     0.666667    Uiso  ? Co
   Co17       1.0     0.833333     0.166667     0.666667    Uiso  ? Co
   Co18       1.0     0.333333     0.166667     0.666667    Uiso  ? Co
   Co19       1.0     0.997929     0.498965     0.891488    Uiso  ? Co
   Co20       1.0     0.501035     0.002071     0.891488    Uiso  ? Co
   Co21       1.0     0.501035     0.498965     0.891488    Uiso  ? Co
   Co22       1.0     0.335404     0.167702     0.775178    Uiso  ? Co
   Co23       1.0     0.832298     0.664596     0.775178    Uiso  ? Co
   Co24       1.0     0.832298     0.167702     0.775178    Uiso  ? Co
   Co25       1.0     0.664596     0.832298     0.224821    Uiso  ? Co
   Co26       1.0     0.167702     0.335404     0.224821    Uiso  ? Co
   Co27       1.0     0.167702     0.832298     0.224821    Uiso  ? Co
   Co28       1.0     0.002071     0.501035     0.108512    Uiso  ? Co
   Co29       1.0     0.498965     0.997929     0.108512    Uiso  ? Co
   Co30       1.0     0.498965     0.501035     0.108512    Uiso  ? Co
   Co31       1.0     0.331263     0.165631     0.558155    Uiso  ? Co
   Co32       1.0     0.834369     0.668737     0.558155    Uiso  ? Co
   Co33       1.0     0.834369     0.165631     0.558155    Uiso  ? Co
   Co34       1.0     0.668737     0.834369     0.441845    Uiso  ? Co
   Co35       1.0     0.165631     0.331263     0.441845    Uiso  ? Co
   Co36       1.0     0.165631     0.834369     0.441845    Uiso  ? Co
   Fe1        1.0     0.333333     0.666667     0.387757    Uiso  ? Fe
   Fe2        1.0     0.000000     0.000000     0.721091    Uiso  ? Fe
   Fe3        1.0     0.333333     0.666667     0.945576    Uiso  ? Fe
   Fe4        1.0     0.666667     0.333333     0.054424    Uiso  ? Fe
   Fe5        1.0     0.666667     0.333333     0.612243    Uiso  ? Fe
   Fe6        1.0     0.000000     0.000000     0.278909    Uiso  ? Fe
