
#======================================================================
# CRYSTAL DATA
#----------------------------------------------------------------------
data_VESTA_phase_1

_chemical_name_common                  'Sm8 Co28'
_cell_length_a                         5.034705
_cell_length_b                         5.034706
_cell_length_c                         24.281013
_cell_angle_alpha                      90.000000
_cell_angle_beta                       90.000000
_cell_angle_gamma                      119.958328
_cell_volume                           533.246164
_space_group_name_H-M_alt              'P 1'
_space_group_IT_number                 1

loop_
_space_group_symop_operation_xyz
   'x, y, z'

loop_
   _atom_site_label
   _atom_site_occupancy
   _atom_site_fract_x
   _atom_site_fract_y
   _atom_site_fract_z
   _atom_site_adp_type
   _atom_site_U_iso_or_equiv
   _atom_site_type_symbol
   Sm1        1.0     0.666618     0.333382     0.527970    Uiso  ? Sm
   Sm2        1.0     0.333367     0.666633     0.027485    Uiso  ? Sm
   Sm3        1.0     0.333367     0.666633     0.472515    Uiso  ? Sm
   Sm4        1.0     0.666618     0.333382     0.972030    Uiso  ? Sm
   Sm5        1.0     0.666623     0.333377     0.671455    Uiso  ? Sm
   Sm6        1.0     0.333308     0.666692     0.170496    Uiso  ? Sm
   Sm7        1.0     0.333308     0.666692     0.329504    Uiso  ? Sm
   Sm8        1.0     0.666623     0.333377     0.828545    Uiso  ? Sm
   Co1        1.0     0.999955     0.000045     0.499769    Uiso  ? Co
   Co2        1.0     0.999955     0.000045     0.000231    Uiso  ? Co
   Co3        1.0     0.997578     0.002422     0.667664    Uiso  ? Co
   Co4        1.0     0.000138     0.999862     0.167810    Uiso  ? Co
   Co5        1.0     0.000138     0.999862     0.332190    Uiso  ? Co
   Co6        1.0     0.997578     0.002422     0.832336    Uiso  ? Co
   Co7        1.0     0.666529     0.333471     0.329645    Uiso  ? Co
   Co8        1.0     0.336184     0.663816     0.830889    Uiso  ? Co
   Co9        1.0     0.336184     0.663816     0.669111    Uiso  ? Co
   Co10       1.0     0.666529     0.333471     0.170355    Uiso  ? Co
   Co11       1.0     0.165700     0.834300     0.750000    Uiso  ? Co
   Co12       1.0     0.668153     0.834474     0.587112    Uiso  ? Co
   Co13       1.0     0.166695     0.833305     0.586903    Uiso  ? Co
   Co14       1.0     0.165526     0.331847     0.587112    Uiso  ? Co
   Co15       1.0     0.832952     0.666014     0.086819    Uiso  ? Co
   Co16       1.0     0.832752     0.167248     0.086830    Uiso  ? Co
   Co17       1.0     0.333986     0.167048     0.086819    Uiso  ? Co
   Co18       1.0     0.333986     0.167048     0.413181    Uiso  ? Co
   Co19       1.0     0.832952     0.666014     0.413181    Uiso  ? Co
   Co20       1.0     0.832752     0.167248     0.413170    Uiso  ? Co
   Co21       1.0     0.166695     0.833305     0.913097    Uiso  ? Co
   Co22       1.0     0.668153     0.834474     0.912888    Uiso  ? Co
   Co23       1.0     0.165526     0.331847     0.912888    Uiso  ? Co
   Fe1        1.0     0.834198     0.668576     0.250000    Uiso  ? Fe
   Fe2        1.0     0.667796     0.834045     0.750000    Uiso  ? Fe
   Fe3        1.0     0.331424     0.165802     0.250000    Uiso  ? Fe
   Fe4        1.0     0.165955     0.332204     0.750000    Uiso  ? Fe
   Fe5        1.0     0.834202     0.165798     0.250000    Uiso  ? Fe
