
#======================================================================
# CRYSTAL DATA
#----------------------------------------------------------------------
data_VESTA_phase_1

_chemical_name_common                  'Sm8 Co28'
_cell_length_a                         5.015689
_cell_length_b                         5.034379
_cell_length_c                         24.340246
_cell_angle_alpha                      90.000000
_cell_angle_beta                       90.000000
_cell_angle_gamma                      120.108139
_cell_volume                           531.689181
_space_group_name_H-M_alt              'P 1'
_space_group_IT_number                 1

loop_
_space_group_symop_operation_xyz
   'x, y, z'

loop_
   _atom_site_label
   _atom_site_occupancy
   _atom_site_fract_x
   _atom_site_fract_y
   _atom_site_fract_z
   _atom_site_adp_type
   _atom_site_U_iso_or_equiv
   _atom_site_type_symbol
   Sm1        1.0     0.667079     0.332841     0.528215    Uiso  ? Sm
   Sm2        1.0     0.334547     0.666273     0.027325    Uiso  ? Sm
   Sm3        1.0     0.334547     0.666273     0.472675    Uiso  ? Sm
   Sm4        1.0     0.667079     0.332841     0.971785    Uiso  ? Sm
   Sm5        1.0     0.665986     0.332987     0.672347    Uiso  ? Sm
   Sm6        1.0     0.333246     0.666976     0.171312    Uiso  ? Sm
   Sm7        1.0     0.333246     0.666976     0.328688    Uiso  ? Sm
   Sm8        1.0     0.665986     0.332987     0.827653    Uiso  ? Sm
   Co1        1.0     0.000794     0.999031     0.500179    Uiso  ? Co
   Co2        1.0     0.000794     0.999031     0.999821    Uiso  ? Co
   Co3        1.0     0.994267     0.997322     0.667994    Uiso  ? Co
   Co4        1.0     0.008070     0.993261     0.167554    Uiso  ? Co
   Co5        1.0     0.008070     0.993261     0.332446    Uiso  ? Co
   Co6        1.0     0.994267     0.997322     0.832006    Uiso  ? Co
   Co7        1.0     0.657519     0.341256     0.331217    Uiso  ? Co
   Co8        1.0     0.338828     0.669227     0.831430    Uiso  ? Co
   Co9        1.0     0.338828     0.669227     0.668570    Uiso  ? Co
   Co10       1.0     0.657519     0.341256     0.168783    Uiso  ? Co
   Co11       1.0     0.834125     0.166149     0.250000    Uiso  ? Co
   Co12       1.0     0.165412     0.833096     0.750000    Uiso  ? Co
   Co13       1.0     0.165320     0.332006     0.750000    Uiso  ? Co
   Co14       1.0     0.668397     0.833784     0.587477    Uiso  ? Co
   Co15       1.0     0.165625     0.834067     0.587690    Uiso  ? Co
   Co16       1.0     0.166221     0.331925     0.587607    Uiso  ? Co
   Co17       1.0     0.834930     0.668367     0.086644    Uiso  ? Co
   Co18       1.0     0.833532     0.167280     0.087444    Uiso  ? Co
   Co19       1.0     0.332176     0.165818     0.086502    Uiso  ? Co
   Co20       1.0     0.332176     0.165818     0.413498    Uiso  ? Co
   Co21       1.0     0.834930     0.668367     0.413356    Uiso  ? Co
   Co22       1.0     0.833532     0.167280     0.412556    Uiso  ? Co
   Co23       1.0     0.165625     0.834067     0.912310    Uiso  ? Co
   Co24       1.0     0.668397     0.833784     0.912523    Uiso  ? Co
   Co25       1.0     0.166221     0.331925     0.912393    Uiso  ? Co
   Fe1        1.0     0.833553     0.668081     0.250000    Uiso  ? Fe
   Fe2        1.0     0.666940     0.833276     0.750000    Uiso  ? Fe
   Fe3        1.0     0.332213     0.166558     0.250000    Uiso  ? Fe
