
#======================================================================
# CRYSTAL DATA
#----------------------------------------------------------------------
data_VESTA_phase_1

_chemical_name_common                  'Sm8 Co28'
_cell_length_a                         5.021048
_cell_length_b                         5.003027
_cell_length_c                         24.287981
_cell_angle_alpha                      90.000000
_cell_angle_beta                       90.000000
_cell_angle_gamma                      120.119225
_cell_volume                           527.747541
_space_group_name_H-M_alt              'P 1'
_space_group_IT_number                 1

loop_
_space_group_symop_operation_xyz
   'x, y, z'

loop_
   _atom_site_label
   _atom_site_occupancy
   _atom_site_fract_x
   _atom_site_fract_y
   _atom_site_fract_z
   _atom_site_adp_type
   _atom_site_U_iso_or_equiv
   _atom_site_type_symbol
   Sm1        1.0     0.666976     0.333952     0.528259    Uiso  ? Sm
   Sm2        1.0     0.333259     0.666519     0.027431    Uiso  ? Sm
   Sm3        1.0     0.333259     0.666519     0.472569    Uiso  ? Sm
   Sm4        1.0     0.666976     0.333952     0.971741    Uiso  ? Sm
   Sm5        1.0     0.666633     0.333267     0.673240    Uiso  ? Sm
   Sm6        1.0     0.333211     0.666423     0.172029    Uiso  ? Sm
   Sm7        1.0     0.333211     0.666423     0.327971    Uiso  ? Sm
   Sm8        1.0     0.666633     0.333267     0.826760    Uiso  ? Sm
   Co1        1.0     0.000009     0.000018     0.500212    Uiso  ? Co
   Co2        1.0     0.000009     0.000018     0.999788    Uiso  ? Co
   Co3        1.0     0.001026     0.002053     0.668391    Uiso  ? Co
   Co4        1.0     0.999065     0.998129     0.167644    Uiso  ? Co
   Co5        1.0     0.999065     0.998129     0.332356    Uiso  ? Co
   Co6        1.0     0.001026     0.002053     0.831609    Uiso  ? Co
   Co7        1.0     0.667848     0.335696     0.331505    Uiso  ? Co
   Co8        1.0     0.332086     0.664172     0.831605    Uiso  ? Co
   Co9        1.0     0.332086     0.664172     0.668395    Uiso  ? Co
   Co10       1.0     0.667848     0.335696     0.168495    Uiso  ? Co
   Co11       1.0     0.667652     0.833860     0.750000    Uiso  ? Co
   Co12       1.0     0.833454     0.165909     0.250000    Uiso  ? Co
   Co13       1.0     0.166208     0.833860     0.750000    Uiso  ? Co
   Co14       1.0     0.166213     0.332426     0.750000    Uiso  ? Co
   Co15       1.0     0.332454     0.165909     0.250000    Uiso  ? Co
   Co16       1.0     0.668747     0.834666     0.588115    Uiso  ? Co
   Co17       1.0     0.165919     0.834666     0.588115    Uiso  ? Co
   Co18       1.0     0.165741     0.331481     0.587826    Uiso  ? Co
   Co19       1.0     0.833855     0.667710     0.087309    Uiso  ? Co
   Co20       1.0     0.833499     0.165659     0.087099    Uiso  ? Co
   Co21       1.0     0.332159     0.165659     0.087099    Uiso  ? Co
   Co22       1.0     0.332159     0.165659     0.412901    Uiso  ? Co
   Co23       1.0     0.833855     0.667710     0.412691    Uiso  ? Co
   Co24       1.0     0.833499     0.165659     0.412901    Uiso  ? Co
   Co25       1.0     0.165919     0.834666     0.911885    Uiso  ? Co
   Co26       1.0     0.668747     0.834666     0.911885    Uiso  ? Co
   Co27       1.0     0.165741     0.331481     0.912174    Uiso  ? Co
   Fe1        1.0     0.833948     0.667896     0.250000    Uiso  ? Fe
