
#======================================================================
# CRYSTAL DATA
#----------------------------------------------------------------------
data_VESTA_phase_1

_chemical_name_common                  'Sm1 Co5                               '
_cell_length_a                         10.075301
_cell_length_b                         4.947095
_cell_length_c                         7.955265
_cell_angle_alpha                      90.000061
_cell_angle_beta                       90.000191
_cell_angle_gamma                      118.428162
_cell_volume                           348.703776
_space_group_name_H-M_alt              'P 1'
_space_group_IT_number                 1

loop_
_space_group_symop_operation_xyz
   'x, y, z'

loop_
   _atom_site_label
   _atom_site_occupancy
   _atom_site_fract_x
   _atom_site_fract_y
   _atom_site_fract_z
   _atom_site_adp_type
   _atom_site_U_iso_or_equiv
   _atom_site_type_symbol
   Sm1        1.0     0.002055    -0.013295    -0.000351    Uiso  ? Sm
   Sm2        1.0     0.499145     0.015038    -0.003248    Uiso  ? Sm
   Sm3        1.0     0.002056    -0.013309     0.500357    Uiso  ? Sm
   Sm4        1.0     0.499149     0.015062     0.503243    Uiso  ? Sm
   Co1        1.0     0.179603     0.645908    -0.000819    Uiso  ? Co
   Co2        1.0     0.328864     0.355772     0.002066    Uiso  ? Co
   Co3        1.0     0.681342     0.691770     0.000119    Uiso  ? Co
   Co4        1.0     0.815206     0.306250    -0.000926    Uiso  ? Co
   Co5        1.0     0.179621     0.645894     0.500813    Uiso  ? Co
   Co6        1.0     0.328857     0.355816     0.497931    Uiso  ? Co
   Co7        1.0     0.681332     0.691783     0.499886    Uiso  ? Co
   Co8        1.0     0.815218     0.306242     0.500926    Uiso  ? Co
   Co9        1.0     0.748786     0.000194     0.249996    Uiso  ? Co
   Co10       1.0     0.247399     0.500632     0.249989    Uiso  ? Co
   Co11       1.0     0.748007     0.501080     0.249996    Uiso  ? Co
   Co12       1.0     0.247033     0.495583     0.750001    Uiso  ? Co
   Co13       1.0     0.752315    -0.000521     0.750012    Uiso  ? Co
   Co14       1.0     0.750823     0.500002     0.750005    Uiso  ? Co
   Mn1        1.0     0.497766     0.511877     0.249994    Uiso  ? Mn
   Cu1        1.0     0.501295     0.514424     0.750003    Uiso  ? Cu
   Cu2        1.0    -0.001226     0.487927     0.750002    Uiso  ? Cu
   Cu3        1.0    -0.002833     0.488600     0.250002    Uiso  ? Cu
   Cu4        1.0     0.248304    -0.003093     0.250013    Uiso  ? Cu
   Cu5        1.0     0.249881     0.000363     0.749990    Uiso  ? Cu
