
#======================================================================
# CRYSTAL DATA
#----------------------------------------------------------------------
data_VESTA_phase_1

_chemical_name_common                  'Sm1 Co5                               '
_cell_length_a                         10.087635
_cell_length_b                         4.984405
_cell_length_c                         7.966465
_cell_angle_alpha                      90.000381
_cell_angle_beta                       89.999870
_cell_angle_gamma                      119.227165
_cell_volume                           349.565569
_space_group_name_H-M_alt              'P 1'
_space_group_IT_number                 1

loop_
_space_group_symop_operation_xyz
   'x, y, z'

loop_
   _atom_site_label
   _atom_site_occupancy
   _atom_site_fract_x
   _atom_site_fract_y
   _atom_site_fract_z
   _atom_site_adp_type
   _atom_site_U_iso_or_equiv
   _atom_site_type_symbol
   Sm1        1.0     0.000791    -0.019871    -0.001146    Uiso  ? Sm
   Sm2        1.0     0.499679     0.020339    -0.004105    Uiso  ? Sm
   Sm3        1.0     0.000782    -0.019872     0.501136    Uiso  ? Sm
   Sm4        1.0     0.499695     0.020340     0.504115    Uiso  ? Sm
   Co1        1.0     0.177354     0.641669    -0.000776    Uiso  ? Co
   Co2        1.0     0.330731     0.361104     0.001878    Uiso  ? Co
   Co3        1.0     0.675004     0.696926    -0.001884    Uiso  ? Co
   Co4        1.0     0.819683     0.297648    -0.003442    Uiso  ? Co
   Co5        1.0     0.177362     0.641664     0.500783    Uiso  ? Co
   Co6        1.0     0.330714     0.361090     0.498136    Uiso  ? Co
   Co7        1.0     0.674989     0.696873     0.501872    Uiso  ? Co
   Co8        1.0     0.819697     0.297681     0.503443    Uiso  ? Co
   Co9        1.0     0.747277     0.001890     0.250011    Uiso  ? Co
   Co10       1.0     0.248644     0.503274     0.249987    Uiso  ? Co
   Co11       1.0     0.247276     0.494916     0.750016    Uiso  ? Co
   Co12       1.0     0.753122    -0.001685     0.749980    Uiso  ? Co
   Co13       1.0     0.750469     0.500346     0.750008    Uiso  ? Co
   Mn1        1.0     0.499508     0.520500     0.249998    Uiso  ? Mn
   Cu1        1.0     0.500681     0.515685     0.750006    Uiso  ? Cu
   Cu2        1.0    -0.000567     0.487074     0.750006    Uiso  ? Cu
   Cu3        1.0    -0.001666     0.483036     0.249993    Uiso  ? Cu
   Cu4        1.0     0.248924    -0.001224     0.250007    Uiso  ? Cu
   Cu5        1.0     0.249756    -0.000155     0.749993    Uiso  ? Cu
   Cu6        1.0     0.750094     0.500751     0.249985    Uiso  ? Cu
