
#======================================================================
# CRYSTAL DATA
#----------------------------------------------------------------------
data_VESTA_phase_1

_chemical_name_common                  'Sm12 Co42                             '
_cell_length_a                         5.034845
_cell_length_b                         5.040935
_cell_length_c                         36.540791
_cell_angle_alpha                      89.965858
_cell_angle_beta                       90.048393
_cell_angle_gamma                      119.527130
_cell_volume                           806.966182
_space_group_name_H-M_alt              'P 1'
_space_group_IT_number                 1

loop_
_space_group_symop_operation_xyz
   'x, y, z'

loop_
   _atom_site_label
   _atom_site_occupancy
   _atom_site_fract_x
   _atom_site_fract_y
   _atom_site_fract_z
   _atom_site_adp_type
   _atom_site_U_iso_or_equiv
   _atom_site_type_symbol
   Sm1        1.0     0.000277    -0.001667     0.949784    Uiso  ? Sm
   Sm2        1.0     0.333755     0.666238     0.717799    Uiso  ? Sm
   Sm3        1.0     0.665129     0.333200     0.281972    Uiso  ? Sm
   Sm4        1.0     0.000392     0.998621     0.050904    Uiso  ? Sm
   Sm5        1.0     0.334416     0.666989     0.616088    Uiso  ? Sm
   Sm6        1.0     0.665659     0.334669     0.383890    Uiso  ? Sm
   Sm7        1.0     0.002035     0.995081     0.851792    Uiso  ? Sm
   Sm8        1.0     0.331733     0.659354     0.816190    Uiso  ? Sm
   Sm9        1.0     0.664826     0.334416     0.181629    Uiso  ? Sm
   Sm10       1.0    -0.001230     0.000684     0.146018    Uiso  ? Sm
   Sm11       1.0     0.338579     0.674992     0.517753    Uiso  ? Sm
   Sm12       1.0     0.674028     0.338974     0.482156    Uiso  ? Sm
   Co1        1.0     0.666873     0.327274     0.833912    Uiso  ? Co
   Co2        1.0     0.331943     0.667556     0.166665    Uiso  ? Co
   Co3        1.0     0.006012     0.006851     0.499947    Uiso  ? Co
   Co4        1.0     0.010782     0.023427     0.721152    Uiso  ? Co
   Co5        1.0     0.316719     0.681908     0.946672    Uiso  ? Co
   Co6        1.0     0.655015     0.344770     0.054634    Uiso  ? Co
   Co7        1.0     0.989095    -0.015784     0.279290    Uiso  ? Co
   Co8        1.0     0.299905     0.649994     0.387162    Uiso  ? Co
   Co9        1.0     0.657869     0.311153     0.612760    Uiso  ? Co
   Co10       1.0     0.684248     0.314205     0.947365    Uiso  ? Co
   Co11       1.0     0.656063     0.307642     0.720275    Uiso  ? Co
   Co12       1.0     0.341011     0.683392     0.279898    Uiso  ? Co
   Co13       1.0     0.345964     0.652387     0.053577    Uiso  ? Co
   Co14       1.0     0.011857     0.024330     0.613680    Uiso  ? Co
   Co15       1.0     0.032501     0.019943     0.386334    Uiso  ? Co
   Co16       1.0     0.500490     0.998223     0.001802    Uiso  ? Co
   Co17       1.0     0.501174     0.497704     0.997897    Uiso  ? Co
   Co18       1.0     0.000513     0.498169     0.001766    Uiso  ? Co
   Co19       1.0     0.165307     0.334642     0.331807    Uiso  ? Co
   Co20       1.0     0.165278     0.833946     0.333089    Uiso  ? Co
   Co21       1.0     0.665659     0.834500     0.335063    Uiso  ? Co
   Co22       1.0     0.833926     0.666410     0.667024    Uiso  ? Co
   Co23       1.0     0.834124     0.166361     0.666936    Uiso  ? Co
   Co24       1.0     0.334254     0.166506     0.666939    Uiso  ? Co
   Co25       1.0     0.993786     0.494852     0.892266    Uiso  ? Co
   Co26       1.0     0.503466     0.005129     0.892278    Uiso  ? Co
   Co27       1.0     0.339586     0.168695     0.775499    Uiso  ? Co
   Co28       1.0     0.830111     0.169426     0.775782    Uiso  ? Co
   Co29       1.0     0.165672     0.832671     0.223549    Uiso  ? Co
   Co30       1.0     0.003721     0.504473     0.106550    Uiso  ? Co
   Co31       1.0     0.494572     0.995208     0.106510    Uiso  ? Co
   Co32       1.0     0.496426     0.502931     0.108107    Uiso  ? Co
   Co33       1.0     0.327813     0.164925     0.558376    Uiso  ? Co
   Co34       1.0     0.838087     0.165367     0.558184    Uiso  ? Co
   Co35       1.0     0.164098     0.328280     0.441656    Uiso  ? Co
   Co36       1.0     0.164573     0.838554     0.441680    Uiso  ? Co
   Mn1        1.0     0.662836     0.833295     0.439644    Uiso  ? Mn
   Mn2        1.0     0.832873     0.663481     0.559979    Uiso  ? Mn
   Mn3        1.0     0.497335     0.500323     0.894086    Uiso  ? Mn
   Mn4        1.0     0.836513     0.670654     0.773902    Uiso  ? Mn
   Mn5        1.0     0.664945     0.830746     0.224698    Uiso  ? Mn
   Mn6        1.0     0.167407     0.333928     0.225632    Uiso  ? Mn
