
#======================================================================
# CRYSTAL DATA
#----------------------------------------------------------------------
data_VESTA_phase_1

_chemical_name_common                  'Sm12 Co42                             '
_cell_length_a                         5.033989
_cell_length_b                         5.008343
_cell_length_c                         36.397465
_cell_angle_alpha                      90.000000
_cell_angle_beta                       90.070358
_cell_angle_gamma                      119.831612
_cell_volume                           796.053105
_space_group_name_H-M_alt              'P 1'
_space_group_IT_number                 1

loop_
_space_group_symop_operation_xyz
   'x, y, z'

loop_
   _atom_site_label
   _atom_site_occupancy
   _atom_site_fract_x
   _atom_site_fract_y
   _atom_site_fract_z
   _atom_site_adp_type
   _atom_site_U_iso_or_equiv
   _atom_site_type_symbol
   Sm1        1.0     0.000015     0.000007     0.948985    Uiso  ? Sm
   Sm2        1.0     0.332759     0.666379     0.719684    Uiso  ? Sm
   Sm3        1.0     0.667239     0.333620     0.280313    Uiso  ? Sm
   Sm4        1.0     0.000047     0.000024     0.051016    Uiso  ? Sm
   Sm5        1.0     0.330986     0.665493     0.617386    Uiso  ? Sm
   Sm6        1.0     0.668982     0.334491     0.382612    Uiso  ? Sm
   Sm7        1.0    -0.000999    -0.000500     0.852693    Uiso  ? Sm
   Sm8        1.0     0.333321     0.666661     0.815886    Uiso  ? Sm
   Sm9        1.0     0.666665     0.333332     0.184120    Uiso  ? Sm
   Sm10       1.0     0.001010     0.000505     0.147323    Uiso  ? Sm
   Sm11       1.0     0.329058     0.664529     0.517793    Uiso  ? Sm
   Sm12       1.0     0.670937     0.335469     0.482210    Uiso  ? Sm
   Co1        1.0     0.666476     0.333238     0.834385    Uiso  ? Co
   Co2        1.0     0.333518     0.666759     0.165620    Uiso  ? Co
   Co3        1.0    -0.000019    -0.000010     0.500001    Uiso  ? Co
   Co4        1.0     0.019957     0.009978     0.722547    Uiso  ? Co
   Co5        1.0     0.333474     0.666737     0.945783    Uiso  ? Co
   Co6        1.0     0.666544     0.333272     0.054214    Uiso  ? Co
   Co7        1.0    -0.020038    -0.010019     0.277443    Uiso  ? Co
   Co8        1.0     0.296647     0.648323     0.385822    Uiso  ? Co
   Co9        1.0     0.703357     0.351679     0.614167    Uiso  ? Co
   Co10       1.0     0.666273     0.333137     0.945931    Uiso  ? Co
   Co11       1.0     0.646026     0.323013     0.722468    Uiso  ? Co
   Co12       1.0     0.353989     0.676994     0.277526    Uiso  ? Co
   Co13       1.0     0.333850     0.666925     0.054073    Uiso  ? Co
   Co14       1.0    -0.041179    -0.020590     0.614785    Uiso  ? Co
   Co15       1.0     0.041113     0.020556     0.385206    Uiso  ? Co
   Co16       1.0     0.500061     0.000032     0.000005    Uiso  ? Co
   Co17       1.0     0.500061     0.500029     0.000005    Uiso  ? Co
   Co18       1.0     0.000063     0.500031     0.000009    Uiso  ? Co
   Co19       1.0     0.168488     0.334725     0.330214    Uiso  ? Co
   Co20       1.0     0.168488     0.833763     0.330214    Uiso  ? Co
   Co21       1.0     0.668408     0.834204     0.334124    Uiso  ? Co
   Co22       1.0     0.831468     0.665223     0.669787    Uiso  ? Co
   Co23       1.0     0.831468     0.166245     0.669787    Uiso  ? Co
   Co24       1.0     0.331605     0.165802     0.665865    Uiso  ? Co
   Co25       1.0     0.998395     0.499197     0.892530    Uiso  ? Co
   Co26       1.0     0.500779     0.002291     0.892422    Uiso  ? Co
   Co27       1.0     0.500779     0.498487     0.892422    Uiso  ? Co
   Co28       1.0     0.337013     0.168507     0.776834    Uiso  ? Co
   Co29       1.0     0.833072     0.665028     0.775672    Uiso  ? Co
   Co30       1.0     0.833072     0.168044     0.775672    Uiso  ? Co
   Co31       1.0     0.662938     0.831469     0.223162    Uiso  ? Co
   Co32       1.0     0.166934     0.334951     0.224324    Uiso  ? Co
   Co33       1.0     0.166934     0.831983     0.224324    Uiso  ? Co
   Co34       1.0     0.001639     0.500819     0.107475    Uiso  ? Co
   Co35       1.0     0.499203     0.997693     0.107582    Uiso  ? Co
   Co36       1.0     0.499203     0.501510     0.107582    Uiso  ? Co
   Co37       1.0     0.833860     0.670498     0.559222    Uiso  ? Co
   Co38       1.0     0.833860     0.163362     0.559222    Uiso  ? Co
   Co39       1.0     0.166118     0.329491     0.440776    Uiso  ? Co
   Co40       1.0     0.166118     0.836627     0.440776    Uiso  ? Co
   Mn1        1.0     0.667024     0.833512     0.438824    Uiso  ? Mn
   Mn2        1.0     0.332947     0.166474     0.561178    Uiso  ? Mn
