
#======================================================================
# CRYSTAL DATA
#----------------------------------------------------------------------
data_VESTA_phase_1

_chemical_name_common                  'Sm12 Co42                             '
_cell_length_a                         5.037519
_cell_length_b                         5.035595
_cell_length_c                         36.375820
_cell_angle_alpha                      90.017632
_cell_angle_beta                       89.990067
_cell_angle_gamma                      119.989830
_cell_volume                           799.199836
_space_group_name_H-M_alt              'P 1'
_space_group_IT_number                 1

loop_
_space_group_symop_operation_xyz
   'x, y, z'

loop_
   _atom_site_label
   _atom_site_occupancy
   _atom_site_fract_x
   _atom_site_fract_y
   _atom_site_fract_z
   _atom_site_adp_type
   _atom_site_U_iso_or_equiv
   _atom_site_type_symbol
   Sm1        1.0     0.999702     0.999975     0.949891    Uiso  ? Sm
   Sm2        1.0     0.332903     0.667085     0.718533    Uiso  ? Sm
   Sm3        1.0     0.666884     0.333214     0.280792    Uiso  ? Sm
   Sm4        1.0     0.000054     0.999833     0.051907    Uiso  ? Sm
   Sm5        1.0     0.332936     0.666535     0.616535    Uiso  ? Sm
   Sm6        1.0     0.666903     0.333430     0.382826    Uiso  ? Sm
   Sm7        1.0     0.002747     0.997589     0.850909    Uiso  ? Sm
   Sm8        1.0     0.334280     0.665314     0.814560    Uiso  ? Sm
   Sm9        1.0     0.667544     0.333077     0.184737    Uiso  ? Sm
   Sm10       1.0     0.001088     0.000056     0.147926    Uiso  ? Sm
   Sm11       1.0     0.338377     0.674197     0.517633    Uiso  ? Sm
   Sm12       1.0     0.674135     0.338668     0.481757    Uiso  ? Sm
   Co1        1.0     0.668521     0.331235     0.834049    Uiso  ? Co
   Co2        1.0     0.334134     0.666438     0.166370    Uiso  ? Co
   Co3        1.0     0.005996     0.006139     0.499684    Uiso  ? Co
   Co4        1.0     0.986520     0.977577     0.721849    Uiso  ? Co
   Co5        1.0     0.316060     0.683991     0.946883    Uiso  ? Co
   Co6        1.0     0.655911     0.343605     0.054932    Uiso  ? Co
   Co7        1.0     0.978604     0.989212     0.277902    Uiso  ? Co
   Co8        1.0     0.298942     0.649160     0.386110    Uiso  ? Co
   Co9        1.0     0.648183     0.298208     0.613267    Uiso  ? Co
   Co10       1.0     0.683519     0.315673     0.947398    Uiso  ? Co
   Co11       1.0     0.679194     0.356579     0.721361    Uiso  ? Co
   Co12       1.0     0.354887     0.677077     0.277881    Uiso  ? Co
   Co13       1.0     0.344273     0.656049     0.054781    Uiso  ? Co
   Co14       1.0     0.017682     0.035296     0.614116    Uiso  ? Co
   Co15       1.0     0.035346     0.017819     0.385241    Uiso  ? Co
   Co16       1.0     0.499509     0.999301     0.002171    Uiso  ? Co
   Co17       1.0     0.500038     0.499702     0.998477    Uiso  ? Co
   Co18       1.0     0.000616     0.500344     0.002179    Uiso  ? Co
   Co19       1.0     0.167062     0.334268     0.330573    Uiso  ? Co
   Co20       1.0     0.167182     0.832617     0.330568    Uiso  ? Co
   Co21       1.0     0.666713     0.833133     0.334270    Uiso  ? Co
   Co22       1.0     0.833041     0.666990     0.665105    Uiso  ? Co
   Co23       1.0     0.832494     0.166798     0.668806    Uiso  ? Co
   Co24       1.0     0.333273     0.166956     0.668925    Uiso  ? Co
   Co25       1.0     0.994776     0.497599     0.891999    Uiso  ? Co
   Co26       1.0     0.501877     0.004578     0.891964    Uiso  ? Co
   Co27       1.0     0.334510     0.165430     0.774406    Uiso  ? Co
   Co28       1.0     0.831537     0.661998     0.775922    Uiso  ? Co
   Co29       1.0     0.829859     0.167852     0.774667    Uiso  ? Co
   Co30       1.0     0.663486     0.831286     0.223552    Uiso  ? Co
   Co31       1.0     0.167114     0.334353     0.224863    Uiso  ? Co
   Co32       1.0     0.166826     0.832417     0.224872    Uiso  ? Co
   Co33       1.0     0.001327     0.500954     0.107798    Uiso  ? Co
   Co34       1.0     0.499096     0.998321     0.107818    Uiso  ? Co
   Co35       1.0     0.498672     0.501941     0.109158    Uiso  ? Co
   Co36       1.0     0.326609     0.164002     0.558451    Uiso  ? Co
   Co37       1.0     0.837247     0.164643     0.558546    Uiso  ? Co
   Co38       1.0     0.164037     0.326918     0.440899    Uiso  ? Co
   Co39       1.0     0.164781     0.837412     0.440839    Uiso  ? Co
   Mn1        1.0     0.663203     0.832289     0.438867    Uiso  ? Mn
   Mn2        1.0     0.831980     0.662952     0.560544    Uiso  ? Mn
   Mn3        1.0     0.497811     0.501917     0.893929    Uiso  ? Mn
