
#======================================================================
# CRYSTAL DATA
#----------------------------------------------------------------------
data_VESTA_phase_1

_chemical_name_common                  'Sm12 Co42                             '
_cell_length_a                         5.036432
_cell_length_b                         5.036432
_cell_length_c                         36.454788
_cell_angle_alpha                      90.000000
_cell_angle_beta                       90.000000
_cell_angle_gamma                      120.000000
_cell_volume                           800.813169
_space_group_name_H-M_alt              'P 1'
_space_group_IT_number                 1

loop_
_space_group_symop_operation_xyz
   'x, y, z'

loop_
   _atom_site_label
   _atom_site_occupancy
   _atom_site_fract_x
   _atom_site_fract_y
   _atom_site_fract_z
   _atom_site_adp_type
   _atom_site_U_iso_or_equiv
   _atom_site_type_symbol
   Sm1        1.0     -0.000000     -0.000000     0.946433    Uiso  ? Sm
   Sm2        1.0     0.333333     0.666667     0.717567    Uiso  ? Sm
   Sm3        1.0     0.666667     0.333333     0.285505    Uiso  ? Sm
   Sm4        1.0     -0.000000     -0.000000     0.047828    Uiso  ? Sm
   Sm5        1.0     0.333333     0.666667     0.615766    Uiso  ? Sm
   Sm6        1.0     0.666667     0.333333     0.386900    Uiso  ? Sm
   Sm7        1.0     -0.000000     -0.000000     0.850386    Uiso  ? Sm
   Sm8        1.0     0.333333     0.666667     0.813718    Uiso  ? Sm
   Sm9        1.0     0.666667     0.333333     0.190803    Uiso  ? Sm
   Sm10       1.0     -0.000000     -0.000000     0.142530    Uiso  ? Sm
   Sm11       1.0     0.333333     0.666667     0.519615    Uiso  ? Sm
   Sm12       1.0     0.666667     0.333333     0.482947    Uiso  ? Sm
   Co1        1.0     0.666667     0.333333     0.831838    Uiso  ? Co
   Co2        1.0     -0.000000     -0.000000     0.501495    Uiso  ? Co
   Co3        1.0     -0.000000     -0.000000     0.720698    Uiso  ? Co
   Co4        1.0     0.333333     0.666667     0.942849    Uiso  ? Co
   Co5        1.0     0.666667     0.333333     0.050386    Uiso  ? Co
   Co6        1.0     -0.000000     -0.000000     0.282947    Uiso  ? Co
   Co7        1.0     0.333333     0.666667     0.390484    Uiso  ? Co
   Co8        1.0     0.666667     0.333333     0.612635    Uiso  ? Co
   Co9        1.0     0.666667     0.333333     0.943847    Uiso  ? Co
   Co10       1.0     0.666667     0.333333     0.720606    Uiso  ? Co
   Co11       1.0     0.333333     0.666667     0.280753    Uiso  ? Co
   Co12       1.0     0.333333     0.666667     0.052581    Uiso  ? Co
   Co13       1.0     -0.000000     -0.000000     0.612728    Uiso  ? Co
   Co14       1.0     -0.000000     -0.000000     0.389487    Uiso  ? Co
   Co15       1.0     0.498990    -0.002019    -0.002525    Uiso  ? Co
   Co16       1.0     0.498990     0.501010    -0.002525    Uiso  ? Co
   Co17       1.0     0.002019     0.501010    -0.002525    Uiso  ? Co
   Co18       1.0     0.167676     0.335353     0.335859    Uiso  ? Co
   Co19       1.0     0.167676     0.832324     0.335859    Uiso  ? Co
   Co20       1.0     0.664648     0.832324     0.335859    Uiso  ? Co
   Co21       1.0     0.833333     0.666667     0.666667    Uiso  ? Co
   Co22       1.0     0.833333     0.166667     0.666667    Uiso  ? Co
   Co23       1.0     0.333333     0.166667     0.666667    Uiso  ? Co
   Co24       1.0     0.996366     0.498183     0.890054    Uiso  ? Co
   Co25       1.0     0.501817     0.003634     0.890054    Uiso  ? Co
   Co26       1.0     0.501817     0.498183     0.890054    Uiso  ? Co
   Co27       1.0     0.335350     0.167675     0.773985    Uiso  ? Co
   Co28       1.0     0.832325     0.664651     0.773985    Uiso  ? Co
   Co29       1.0     0.832325     0.167675     0.773985    Uiso  ? Co
   Co30       1.0     0.674242     0.837121     0.228462    Uiso  ? Co
   Co31       1.0     0.162879     0.325758     0.228462    Uiso  ? Co
   Co32       1.0     0.162879     0.837121     0.228462    Uiso  ? Co
   Co33       1.0    -0.007576     0.496212     0.104871    Uiso  ? Co
   Co34       1.0     0.503788     0.007576     0.104871    Uiso  ? Co
   Co35       1.0     0.503788     0.496212     0.104871    Uiso  ? Co
   Co36       1.0     0.331317     0.165659     0.559348    Uiso  ? Co
   Co37       1.0     0.834341     0.668683     0.559348    Uiso  ? Co
   Co38       1.0     0.834341     0.165659     0.559348    Uiso  ? Co
   Co39       1.0     0.670301     0.835151     0.443279    Uiso  ? Co
   Co40       1.0     0.164849     0.329699     0.443279    Uiso  ? Co
   Co41       1.0     0.164849     0.835151     0.443279    Uiso  ? Co
   Sc1        1.0     0.333333     0.666667     0.166667    Uiso  ? Sc
