
#======================================================================
# CRYSTAL DATA
#----------------------------------------------------------------------
data_VESTA_phase_1

_chemical_name_common                  'Sm12 Co42                             '
_cell_length_a                         5.035950
_cell_length_b                         5.035950
_cell_length_c                         36.320736
_cell_angle_alpha                      90.000000
_cell_angle_beta                       90.000000
_cell_angle_gamma                      120.000000
_cell_volume                           797.715668
_space_group_name_H-M_alt              'P 1'
_space_group_IT_number                 1

loop_
_space_group_symop_operation_xyz
   'x, y, z'

loop_
   _atom_site_label
   _atom_site_occupancy
   _atom_site_fract_x
   _atom_site_fract_y
   _atom_site_fract_z
   _atom_site_adp_type
   _atom_site_U_iso_or_equiv
   _atom_site_type_symbol
   Sm1        1.0     -0.000000     -0.000000     0.948253    Uiso  ? Sm
   Sm2        1.0     0.333333     0.666667     0.718320    Uiso  ? Sm
   Sm3        1.0     0.666667     0.333333     0.285403    Uiso  ? Sm
   Sm4        1.0     -0.000000     -0.000000     0.050459    Uiso  ? Sm
   Sm5        1.0     0.333333     0.666667     0.616122    Uiso  ? Sm
   Sm6        1.0     0.666667     0.333333     0.386479    Uiso  ? Sm
   Sm7        1.0     -0.000000     -0.000000     0.851751    Uiso  ? Sm
   Sm8        1.0     0.333333     0.666667     0.814788    Uiso  ? Sm
   Sm9        1.0     0.666667     0.333333     0.184841    Uiso  ? Sm
   Sm10       1.0     -0.000000     -0.000000     0.147048    Uiso  ? Sm
   Sm11       1.0     0.333333     0.666667     0.519682    Uiso  ? Sm
   Sm12       1.0     0.666667     0.333333     0.482726    Uiso  ? Sm
   Co1        1.0     0.666667     0.333333     0.833270    Uiso  ? Co
   Co2        1.0     0.333333     0.666667     0.165599    Uiso  ? Co
   Co3        1.0     -0.000000     -0.000000     0.500920    Uiso  ? Co
   Co4        1.0     -0.000000     -0.000000     0.721535    Uiso  ? Co
   Co5        1.0     0.333333     0.666667     0.945072    Uiso  ? Co
   Co6        1.0     0.666667     0.333333     0.053708    Uiso  ? Co
   Co7        1.0     -0.000000     -0.000000     0.277206    Uiso  ? Co
   Co8        1.0     0.333333     0.666667     0.387701    Uiso  ? Co
   Co9        1.0     0.666667     0.333333     0.612737    Uiso  ? Co
   Co10       1.0     0.666667     0.333333     0.945109    Uiso  ? Co
   Co11       1.0     0.666667     0.333333     0.721403    Uiso  ? Co
   Co12       1.0     0.333333     0.666667     0.053378    Uiso  ? Co
   Co13       1.0     -0.000000     -0.000000     0.613093    Uiso  ? Co
   Co14       1.0     -0.000000     -0.000000     0.390282    Uiso  ? Co
   Co15       1.0     0.500147     0.000294    -0.000661    Uiso  ? Co
   Co16       1.0     0.500147     0.499853    -0.000661    Uiso  ? Co
   Co17       1.0    -0.000294     0.499853    -0.000661    Uiso  ? Co
   Co18       1.0     0.161148     0.322296     0.335447    Uiso  ? Co
   Co19       1.0     0.161148     0.838852     0.335447    Uiso  ? Co
   Co20       1.0     0.677704     0.838852     0.335447    Uiso  ? Co
   Co21       1.0     0.833310     0.666621     0.667168    Uiso  ? Co
   Co22       1.0     0.833310     0.166690     0.667168    Uiso  ? Co
   Co23       1.0     0.333379     0.166690     0.667168    Uiso  ? Co
   Co24       1.0     0.997944     0.498972     0.891546    Uiso  ? Co
   Co25       1.0     0.501028     0.002056     0.891546    Uiso  ? Co
   Co26       1.0     0.501028     0.498972     0.891546    Uiso  ? Co
   Co27       1.0     0.335383     0.167692     0.775022    Uiso  ? Co
   Co28       1.0     0.832308     0.664617     0.775022    Uiso  ? Co
   Co29       1.0     0.832308     0.167692     0.775022    Uiso  ? Co
   Co30       1.0     0.676977     0.838488     0.221078    Uiso  ? Co
   Co31       1.0     0.161512     0.323023     0.221078    Uiso  ? Co
   Co32       1.0     0.161512     0.838488     0.221078    Uiso  ? Co
   Co33       1.0     0.002473     0.501237     0.107068    Uiso  ? Co
   Co34       1.0     0.498763     0.997527     0.107068    Uiso  ? Co
   Co35       1.0     0.498763     0.501237     0.107068    Uiso  ? Co
   Co36       1.0     0.330656     0.165328     0.559394    Uiso  ? Co
   Co37       1.0     0.834672     0.669344     0.559394    Uiso  ? Co
   Co38       1.0     0.834672     0.165328     0.559394    Uiso  ? Co
   Co39       1.0     0.665933     0.832966     0.442901    Uiso  ? Co
   Co40       1.0     0.167034     0.334067     0.442901    Uiso  ? Co
   Co41       1.0     0.167034     0.832966     0.442901    Uiso  ? Co
   Sc1        1.0     0.333333     0.666667     0.276230    Uiso  ? Sc
