
#======================================================================
# CRYSTAL DATA
#----------------------------------------------------------------------
data_VESTA_phase_1

_chemical_name_common                  'Sm12 Co42                             '
_cell_length_a                         5.036820
_cell_length_b                         5.013061
_cell_length_c                         36.522064
_cell_angle_alpha                      89.999603
_cell_angle_beta                       89.880913
_cell_angle_gamma                      119.843719
_cell_volume                           799.881926
_space_group_name_H-M_alt              'P 1'
_space_group_IT_number                 1

loop_
_space_group_symop_operation_xyz
   'x, y, z'

loop_
   _atom_site_label
   _atom_site_occupancy
   _atom_site_fract_x
   _atom_site_fract_y
   _atom_site_fract_z
   _atom_site_adp_type
   _atom_site_U_iso_or_equiv
   _atom_site_type_symbol
   Sm1        1.0    -0.000476    -0.000234     0.948832    Uiso  ? Sm
   Sm2        1.0     0.333766     0.666865     0.719971    Uiso  ? Sm
   Sm3        1.0     0.663979     0.331973     0.278697    Uiso  ? Sm
   Sm4        1.0    -0.000139    -0.000054     0.050619    Uiso  ? Sm
   Sm5        1.0     0.335177     0.667596     0.618382    Uiso  ? Sm
   Sm6        1.0     0.659873     0.329940     0.378026    Uiso  ? Sm
   Sm7        1.0    -0.000951    -0.000462     0.852786    Uiso  ? Sm
   Sm8        1.0     0.333321     0.666672     0.815986    Uiso  ? Sm
   Sm9        1.0     0.667305     0.333636     0.183312    Uiso  ? Sm
   Sm10       1.0     0.002207     0.001090     0.146660    Uiso  ? Sm
   Sm11       1.0     0.341372     0.670700     0.522845    Uiso  ? Sm
   Sm12       1.0     0.689459     0.344745     0.487283    Uiso  ? Sm
   Co1        1.0     0.666220     0.333097     0.834364    Uiso  ? Co
   Co2        1.0     0.333914     0.666952     0.164986    Uiso  ? Co
   Co3        1.0     0.017983     0.009001     0.502015    Uiso  ? Co
   Co4        1.0    -0.005375    -0.002711     0.722966    Uiso  ? Co
   Co5        1.0     0.336188     0.668115     0.945626    Uiso  ? Co
   Co6        1.0     0.661899     0.330973     0.053830    Uiso  ? Co
   Co7        1.0    -0.030471    -0.015257     0.276563    Uiso  ? Co
   Co8        1.0     0.260003     0.630001     0.384526    Uiso  ? Co
   Co9        1.0     0.666098     0.333004     0.614365    Uiso  ? Co
   Co10       1.0     0.662933     0.331463     0.945741    Uiso  ? Co
   Co11       1.0     0.672886     0.336455     0.723198    Uiso  ? Co
   Co12       1.0     0.358296     0.679143     0.276535    Uiso  ? Co
   Co13       1.0     0.337935     0.668975     0.053635    Uiso  ? Co
   Co14       1.0     0.006511     0.003337     0.615725    Uiso  ? Co
   Co15       1.0     0.056470     0.028221     0.383739    Uiso  ? Co
   Co16       1.0     0.499789     0.000028    -0.000309    Uiso  ? Co
   Co17       1.0     0.499788     0.499769    -0.000311    Uiso  ? Co
   Co18       1.0    -0.000144     0.499931    -0.000257    Uiso  ? Co
   Co19       1.0     0.162492     0.331836     0.328578    Uiso  ? Co
   Co20       1.0     0.162504     0.830649     0.328577    Uiso  ? Co
   Co21       1.0     0.662467     0.831231     0.334017    Uiso  ? Co
   Co22       1.0     0.833380     0.666389     0.668859    Uiso  ? Co
   Co23       1.0     0.833392     0.166993     0.668865    Uiso  ? Co
   Co24       1.0     0.335411     0.167693     0.669469    Uiso  ? Co
   Co25       1.0     0.997714     0.498867     0.892604    Uiso  ? Co
   Co26       1.0     0.500408     0.002013     0.892260    Uiso  ? Co
   Co27       1.0     0.500426     0.498424     0.892261    Uiso  ? Co
   Co28       1.0     0.334257     0.167131     0.776050    Uiso  ? Co
   Co29       1.0     0.832270     0.664600     0.776519    Uiso  ? Co
   Co30       1.0     0.832274     0.167680     0.776518    Uiso  ? Co
   Co31       1.0     0.661490     0.830721     0.221973    Uiso  ? Co
   Co32       1.0     0.165801     0.333893     0.223624    Uiso  ? Co
   Co33       1.0     0.165791     0.831876     0.223622    Uiso  ? Co
   Co34       1.0     0.001190     0.500586     0.106728    Uiso  ? Co
   Co35       1.0     0.499751     0.997306     0.107194    Uiso  ? Co
   Co36       1.0     0.499732     0.502452     0.107196    Uiso  ? Co
   Co37       1.0     0.329310     0.164650     0.561760    Uiso  ? Co
   Co38       1.0     0.840221     0.673414     0.561889    Uiso  ? Co
   Co39       1.0     0.840218     0.166799     0.561882    Uiso  ? Co
   Co40       1.0     0.163696     0.321869     0.441507    Uiso  ? Co
   Co41       1.0     0.163700     0.841800     0.441507    Uiso  ? Co
   Sc1        1.0     0.656289     0.828164     0.436204    Uiso  ? Sc
