
#======================================================================
# CRYSTAL DATA
#----------------------------------------------------------------------
data_VESTA_phase_1

_chemical_name_common                  'Sm8 Co28                              '
_cell_length_a                         5.049439
_cell_length_b                         5.049439
_cell_length_c                         24.267376
_cell_angle_alpha                      90.000000
_cell_angle_beta                       90.000000
_cell_angle_gamma                      120.000000
_cell_volume                           535.845641
_space_group_name_H-M_alt              'P 1'
_space_group_IT_number                 1

loop_
_space_group_symop_operation_xyz
   'x, y, z'

loop_
   _atom_site_label
   _atom_site_occupancy
   _atom_site_fract_x
   _atom_site_fract_y
   _atom_site_fract_z
   _atom_site_adp_type
   _atom_site_U_iso_or_equiv
   _atom_site_type_symbol
   Sm1        1.0     0.666667     0.333333     0.529971    Uiso  ? Sm
   Sm2        1.0     0.333333     0.666667     0.026175    Uiso  ? Sm
   Sm3        1.0     0.333333     0.666667     0.472071    Uiso  ? Sm
   Sm4        1.0     0.666667     0.333333     0.970842    Uiso  ? Sm
   Sm5        1.0     0.666667     0.333333     0.674196    Uiso  ? Sm
   Sm6        1.0     0.333333     0.666667     0.169794    Uiso  ? Sm
   Sm7        1.0     0.333333     0.666667     0.320270    Uiso  ? Sm
   Sm8        1.0     0.666667     0.333333     0.826712    Uiso  ? Sm
   Co1        1.0     -0.000000     -0.000000     0.503585    Uiso  ? Co
   Co2        1.0     -0.000000     -0.000000     0.999036    Uiso  ? Co
   Co3        1.0     -0.000000     -0.000000     0.669123    Uiso  ? Co
   Co4        1.0     -0.000000     -0.000000     0.163857    Uiso  ? Co
   Co5        1.0     -0.000000     -0.000000     0.334014    Uiso  ? Co
   Co6        1.0     -0.000000     -0.000000     0.831760    Uiso  ? Co
   Co7        1.0     0.333333     0.666667     0.831692    Uiso  ? Co
   Co8        1.0     0.333333     0.666667     0.670100    Uiso  ? Co
   Co9        1.0     0.666667     0.333333     0.168661    Uiso  ? Co
   Co10       1.0     0.668032     0.834016     0.750625    Uiso  ? Co
   Co11       1.0     0.839664     0.679327     0.246143    Uiso  ? Co
   Co12       1.0     0.839664     0.160336     0.246143    Uiso  ? Co
   Co13       1.0     0.165984     0.834016     0.750625    Uiso  ? Co
   Co14       1.0     0.165984     0.331968     0.750625    Uiso  ? Co
   Co15       1.0     0.320673     0.160336     0.246143    Uiso  ? Co
   Co16       1.0     0.666124     0.833062     0.589563    Uiso  ? Co
   Co17       1.0     0.166938     0.833062     0.589563    Uiso  ? Co
   Co18       1.0     0.166938     0.333876     0.589563    Uiso  ? Co
   Co19       1.0     0.832509     0.665017     0.085617    Uiso  ? Co
   Co20       1.0     0.832509     0.167491     0.085617    Uiso  ? Co
   Co21       1.0     0.334983     0.167491     0.085617    Uiso  ? Co
   Co22       1.0     0.321760     0.160880     0.417806    Uiso  ? Co
   Co23       1.0     0.839120     0.678240     0.417806    Uiso  ? Co
   Co24       1.0     0.839120     0.160880     0.417806    Uiso  ? Co
   Co25       1.0     0.165598     0.834402     0.911714    Uiso  ? Co
   Co26       1.0     0.668804     0.834402     0.911714    Uiso  ? Co
   Co27       1.0     0.165598     0.331197     0.911714    Uiso  ? Co
   Sc1        1.0     0.666667     0.333333     0.333737    Uiso  ? Sc
