
#======================================================================
# CRYSTAL DATA
#----------------------------------------------------------------------
data_VESTA_phase_1

_chemical_name_common                  'Sm8 Co28                              '
_cell_length_a                         5.052009
_cell_length_b                         5.052009
_cell_length_c                         24.183020
_cell_angle_alpha                      90.000000
_cell_angle_beta                       90.000000
_cell_angle_gamma                      120.000000
_cell_volume                           534.526708
_space_group_name_H-M_alt              'P 1'
_space_group_IT_number                 1

loop_
_space_group_symop_operation_xyz
   'x, y, z'

loop_
   _atom_site_label
   _atom_site_occupancy
   _atom_site_fract_x
   _atom_site_fract_y
   _atom_site_fract_z
   _atom_site_adp_type
   _atom_site_U_iso_or_equiv
   _atom_site_type_symbol
   Sm1        1.0     0.666667     0.333333     0.529067    Uiso  ? Sm
   Sm2        1.0     0.333333     0.666667     0.026407    Uiso  ? Sm
   Sm3        1.0     0.333333     0.666667     0.472552    Uiso  ? Sm
   Sm4        1.0     0.666667     0.333333     0.971472    Uiso  ? Sm
   Sm5        1.0     0.666667     0.333333     0.673758    Uiso  ? Sm
   Sm6        1.0     0.333333     0.666667     0.170495    Uiso  ? Sm
   Sm7        1.0     0.333333     0.666667     0.322205    Uiso  ? Sm
   Sm8        1.0     0.666667     0.333333     0.826822    Uiso  ? Sm
   Co1        1.0     -0.000000     -0.000000     0.501184    Uiso  ? Co
   Co2        1.0     -0.000000     -0.000000     0.998718    Uiso  ? Co
   Co3        1.0     -0.000000     -0.000000     0.669121    Uiso  ? Co
   Co4        1.0     -0.000000     -0.000000     0.168288    Uiso  ? Co
   Co5        1.0     -0.000000     -0.000000     0.831835    Uiso  ? Co
   Co6        1.0     0.666667     0.333333     0.333681    Uiso  ? Co
   Co7        1.0     0.333333     0.666667     0.831474    Uiso  ? Co
   Co8        1.0     0.333333     0.666667     0.669119    Uiso  ? Co
   Co9        1.0     0.666667     0.333333     0.164247    Uiso  ? Co
   Co10       1.0     0.667661     0.833830     0.750390    Uiso  ? Co
   Co11       1.0     0.828160     0.656320     0.246482    Uiso  ? Co
   Co12       1.0     0.828160     0.171840     0.246482    Uiso  ? Co
   Co13       1.0     0.166170     0.833830     0.750390    Uiso  ? Co
   Co14       1.0     0.166170     0.332339     0.750390    Uiso  ? Co
   Co15       1.0     0.343680     0.171840     0.246482    Uiso  ? Co
   Co16       1.0     0.668470     0.834235     0.588902    Uiso  ? Co
   Co17       1.0     0.165765     0.834235     0.588902    Uiso  ? Co
   Co18       1.0     0.165765     0.331530     0.588902    Uiso  ? Co
   Co19       1.0     0.835719     0.671439     0.085869    Uiso  ? Co
   Co20       1.0     0.835719     0.164281     0.085869    Uiso  ? Co
   Co21       1.0     0.328561     0.164281     0.085869    Uiso  ? Co
   Co22       1.0     0.343753     0.171877     0.417936    Uiso  ? Co
   Co23       1.0     0.828123     0.656247     0.417936    Uiso  ? Co
   Co24       1.0     0.828123     0.171877     0.417936    Uiso  ? Co
   Co25       1.0     0.165951     0.834049     0.911846    Uiso  ? Co
   Co26       1.0     0.668099     0.834049     0.911846    Uiso  ? Co
   Co27       1.0     0.165951     0.331901     0.911846    Uiso  ? Co
   Sc1        1.0     -0.000000     -0.000000     0.335279    Uiso  ? Sc
