
#======================================================================
# CRYSTAL DATA
#----------------------------------------------------------------------
data_VESTA_phase_1

_chemical_name_common                  'Sm8 Co28                              '
_cell_length_a                         5.055021
_cell_length_b                         5.055021
_cell_length_c                         24.305820
_cell_angle_alpha                      90.000000
_cell_angle_beta                       90.000000
_cell_angle_gamma                      120.000000
_cell_volume                           537.881754
_space_group_name_H-M_alt              'P 1'
_space_group_IT_number                 1

loop_
_space_group_symop_operation_xyz
   'x, y, z'

loop_
   _atom_site_label
   _atom_site_occupancy
   _atom_site_fract_x
   _atom_site_fract_y
   _atom_site_fract_z
   _atom_site_adp_type
   _atom_site_U_iso_or_equiv
   _atom_site_type_symbol
   Sm1        1.0     0.666667     0.333333     0.535956    Uiso  ? Sm
   Sm2        1.0     0.333333     0.666667     0.027673    Uiso  ? Sm
   Sm3        1.0     0.333333     0.666667     0.464044    Uiso  ? Sm
   Sm4        1.0     0.666667     0.333333     0.972327    Uiso  ? Sm
   Sm5        1.0     0.666667     0.333333     0.677525    Uiso  ? Sm
   Sm6        1.0     0.333333     0.666667     0.171095    Uiso  ? Sm
   Sm7        1.0     0.333333     0.666667     0.322475    Uiso  ? Sm
   Sm8        1.0     0.666667     0.333333     0.828905    Uiso  ? Sm
   Co1        1.0     0.000000     0.000000     0.000000    Uiso  ? Co
   Co2        1.0     0.000000     -0.000000     0.670073    Uiso  ? Co
   Co3        1.0     0.000000     -0.000000     0.165825    Uiso  ? Co
   Co4        1.0     0.000000     0.000000     0.329927    Uiso  ? Co
   Co5        1.0     0.000000     0.000000     0.834175    Uiso  ? Co
   Co6        1.0     0.666667     0.333333     0.326229    Uiso  ? Co
   Co7        1.0     0.333333     0.666667     0.833002    Uiso  ? Co
   Co8        1.0     0.333333     0.666667     0.673771    Uiso  ? Co
   Co9        1.0     0.666667     0.333333     0.166998    Uiso  ? Co
   Co10       1.0     0.669849     0.834924     0.752686    Uiso  ? Co
   Co11       1.0     0.834924     0.669849     0.247314    Uiso  ? Co
   Co12       1.0     0.834924     0.165076     0.247314    Uiso  ? Co
   Co13       1.0     0.165076     0.834924     0.752686    Uiso  ? Co
   Co14       1.0     0.165076     0.330151     0.752686    Uiso  ? Co
   Co15       1.0     0.330151     0.165076     0.247314    Uiso  ? Co
   Co16       1.0     0.658614     0.829307     0.592175    Uiso  ? Co
   Co17       1.0     0.170693     0.829307     0.592175    Uiso  ? Co
   Co18       1.0     0.170693     0.341386     0.592175    Uiso  ? Co
   Co19       1.0     0.833686     0.667371     0.086655    Uiso  ? Co
   Co20       1.0     0.833686     0.166314     0.086655    Uiso  ? Co
   Co21       1.0     0.332629     0.166314     0.086655    Uiso  ? Co
   Co22       1.0     0.341386     0.170693     0.407825    Uiso  ? Co
   Co23       1.0     0.829307     0.658614     0.407825    Uiso  ? Co
   Co24       1.0     0.829307     0.170693     0.407825    Uiso  ? Co
   Co25       1.0     0.166314     0.833686     0.913345    Uiso  ? Co
   Co26       1.0     0.667371     0.833686     0.913345    Uiso  ? Co
   Co27       1.0     0.166314     0.332629     0.913345    Uiso  ? Co
   Sc1        1.0     0.000000     -0.000000     0.500000    Uiso  ? Sc
