
#======================================================================
# CRYSTAL DATA
#----------------------------------------------------------------------
data_VESTA_phase_1

_chemical_name_common                  'Sm12 Co42                             '
_cell_length_a                         5.066545
_cell_length_b                         4.998491
_cell_length_c                         36.345692
_cell_angle_alpha                      90.037811
_cell_angle_beta                       90.008591
_cell_angle_gamma                      120.014496
_cell_volume                           797.022820
_space_group_name_H-M_alt              'P 1'
_space_group_IT_number                 1

loop_
_space_group_symop_operation_xyz
   'x, y, z'

loop_
   _atom_site_label
   _atom_site_occupancy
   _atom_site_fract_x
   _atom_site_fract_y
   _atom_site_fract_z
   _atom_site_adp_type
   _atom_site_U_iso_or_equiv
   _atom_site_type_symbol
   Sm1        1.0     0.999517    -0.000516     0.948397    Uiso  ? Sm
   Sm2        1.0     0.333317     0.667263     0.719582    Uiso  ? Sm
   Sm3        1.0     0.666737     0.333171     0.281209    Uiso  ? Sm
   Sm4        1.0     0.000464     0.000315     0.052078    Uiso  ? Sm
   Sm5        1.0     0.333532     0.666370     0.613821    Uiso  ? Sm
   Sm6        1.0     0.666535     0.333770     0.384966    Uiso  ? Sm
   Sm7        1.0     0.000650    -0.001840     0.852219    Uiso  ? Sm
   Sm8        1.0     0.335598     0.665389     0.815469    Uiso  ? Sm
   Sm9        1.0     0.663639     0.333281     0.185070    Uiso  ? Sm
   Sm10       1.0     0.997201    -0.000349     0.148223    Uiso  ? Sm
   Sm11       1.0     0.334799     0.667725     0.517869    Uiso  ? Sm
   Sm12       1.0     0.667828     0.335214     0.481140    Uiso  ? Sm
   Co1        1.0     0.668861     0.331232     0.833944    Uiso  ? Co
   Co2        1.0     0.329199     0.666323     0.166624    Uiso  ? Co
   Co3        1.0     0.001735     0.001838     0.499372    Uiso  ? Co
   Co4        1.0     0.985311     0.004759     0.722562    Uiso  ? Co
   Co5        1.0     0.323638     0.683487     0.945354    Uiso  ? Co
   Co6        1.0     0.676325     0.316476     0.055144    Uiso  ? Co
   Co7        1.0     0.030196     0.016174     0.278123    Uiso  ? Co
   Co8        1.0     0.302984     0.649498     0.388030    Uiso  ? Co
   Co9        1.0     0.680532     0.327871     0.610800    Uiso  ? Co
   Co10       1.0     0.675367     0.315134     0.945656    Uiso  ? Co
   Co11       1.0     0.681617     0.330074     0.722203    Uiso  ? Co
   Co12       1.0     0.302804     0.649668     0.278492    Uiso  ? Co
   Co13       1.0     0.324607     0.684470     0.054799    Uiso  ? Co
   Co14       1.0     0.986591     0.004969     0.611161    Uiso  ? Co
   Co15       1.0     0.030327     0.018258     0.387727    Uiso  ? Co
   Co16       1.0     0.500139     0.000054     0.000254    Uiso  ? Co
   Co17       1.0    -0.000041     0.499967     0.000247    Uiso  ? Co
   Co18       1.0     0.166729     0.333398     0.333041    Uiso  ? Co
   Co19       1.0     0.166572     0.833366     0.333120    Uiso  ? Co
   Co20       1.0     0.833275     0.166795     0.666687    Uiso  ? Co
   Co21       1.0     0.996916     0.499044     0.891999    Uiso  ? Co
   Co22       1.0     0.500908     0.003452     0.891336    Uiso  ? Co
   Co23       1.0     0.500564     0.498599     0.893366    Uiso  ? Co
   Co24       1.0     0.335580     0.167331     0.774485    Uiso  ? Co
   Co25       1.0     0.832433     0.663796     0.775207    Uiso  ? Co
   Co26       1.0     0.830986     0.168759     0.776233    Uiso  ? Co
   Co27       1.0     0.665587     0.833608     0.226512    Uiso  ? Co
   Co28       1.0     0.168753     0.336941     0.224219    Uiso  ? Co
   Co29       1.0     0.169967     0.832703     0.224442    Uiso  ? Co
   Co30       1.0     0.003296     0.500268     0.108456    Uiso  ? Co
   Co31       1.0     0.497904     0.996117     0.109108    Uiso  ? Co
   Co32       1.0     0.498393     0.499777     0.107067    Uiso  ? Co
   Co33       1.0     0.331036     0.164421     0.558809    Uiso  ? Co
   Co34       1.0     0.836679     0.669801     0.558182    Uiso  ? Co
   Co35       1.0     0.836899     0.165759     0.557128    Uiso  ? Co
   Co36       1.0     0.667283     0.834469     0.439653    Uiso  ? Co
   Co37       1.0     0.162868     0.329911     0.442027    Uiso  ? Co
   Co38       1.0     0.163764     0.834570     0.441670    Uiso  ? Co
   Cu1        1.0     0.666704     0.833484     0.333095    Uiso  ? Cu
   Cu2        1.0     0.500066     0.499996     0.000241    Uiso  ? Cu
   Cu3        1.0     0.833432     0.666776     0.666646    Uiso  ? Cu
   Cu4        1.0     0.333398     0.166814     0.666733    Uiso  ? Cu
