
#======================================================================
# CRYSTAL DATA
#----------------------------------------------------------------------
data_VESTA_phase_1

_chemical_name_common                  'Sm8 Co28'
_cell_length_a                         4.965087
_cell_length_b                         5.050396
_cell_length_c                         24.426666
_cell_angle_alpha                      90.000000
_cell_angle_beta                       90.000000
_cell_angle_gamma                      119.442787
_cell_volume                           533.406535
_space_group_name_H-M_alt              'P 1'
_space_group_IT_number                 1

loop_
_space_group_symop_operation_xyz
   'x, y, z'

loop_
   _atom_site_label
   _atom_site_occupancy
   _atom_site_fract_x
   _atom_site_fract_y
   _atom_site_fract_z
   _atom_site_adp_type
   _atom_site_U_iso_or_equiv
   _atom_site_type_symbol
   Sm1        1.0     0.667028     0.334057     0.525697    Uiso  ? Sm
   Sm2        1.0     0.334052     0.668105     0.029174    Uiso  ? Sm
   Sm3        1.0     0.334052     0.668105     0.470826    Uiso  ? Sm
   Sm4        1.0     0.667028     0.334057     0.974303    Uiso  ? Sm
   Sm5        1.0     0.666387     0.332773     0.668649    Uiso  ? Sm
   Sm6        1.0     0.333609     0.667217     0.172592    Uiso  ? Sm
   Sm7        1.0     0.333609     0.667217     0.327408    Uiso  ? Sm
   Sm8        1.0     0.666387     0.332773     0.831351    Uiso  ? Sm
   Co1        1.0     0.000761     0.001522     0.497840    Uiso  ? Co
   Co2        1.0     0.000761     0.001522     0.002160    Uiso  ? Co
   Co3        1.0     0.997862     0.995723     0.664505    Uiso  ? Co
   Co4        1.0     0.016942     0.033885     0.168529    Uiso  ? Co
   Co5        1.0     0.016942     0.033885     0.331471    Uiso  ? Co
   Co6        1.0     0.997862     0.995723     0.835495    Uiso  ? Co
   Co7        1.0     0.650654     0.301309     0.331979    Uiso  ? Co
   Co8        1.0     0.334810     0.669621     0.835990    Uiso  ? Co
   Co9        1.0     0.334810     0.669621     0.664010    Uiso  ? Co
   Co10       1.0     0.650654     0.301309     0.168021    Uiso  ? Co
   Co11       1.0     0.832748     0.166584     0.250000    Uiso  ? Co
   Co12       1.0     0.333836     0.166584     0.250000    Uiso  ? Co
   Co13       1.0     0.670232     0.835623     0.585768    Uiso  ? Co
   Co14       1.0     0.165392     0.835623     0.585768    Uiso  ? Co
   Co15       1.0     0.164693     0.329386     0.586531    Uiso  ? Co
   Co16       1.0     0.834479     0.668958     0.091368    Uiso  ? Co
   Co17       1.0     0.833824     0.163588     0.087723    Uiso  ? Co
   Co18       1.0     0.329764     0.163588     0.087723    Uiso  ? Co
   Co19       1.0     0.329764     0.163588     0.412277    Uiso  ? Co
   Co20       1.0     0.834479     0.668958     0.408632    Uiso  ? Co
   Co21       1.0     0.833824     0.163588     0.412277    Uiso  ? Co
   Co22       1.0     0.165392     0.835623     0.914232    Uiso  ? Co
   Co23       1.0     0.670232     0.835623     0.914232    Uiso  ? Co
   Co24       1.0     0.164693     0.329386     0.913469    Uiso  ? Co
   Cu1        1.0     0.833337     0.666674     0.250000    Uiso  ? Cu
   Cu2        1.0     0.666126     0.832609     0.750000    Uiso  ? Cu
   Cu3        1.0     0.166491     0.332982     0.750000    Uiso  ? Cu
   Cu4        1.0     0.166484     0.832609     0.750000    Uiso  ? Cu
