
#======================================================================
# CRYSTAL DATA
#----------------------------------------------------------------------
data_VESTA_phase_1

_chemical_name_common                  'Sm12 Co42'
_cell_length_a                         5.053368
_cell_length_b                         5.053368
_cell_length_c                         36.156281
_cell_angle_alpha                      90.000000
_cell_angle_beta                       90.000000
_cell_angle_gamma                      120.017265
_cell_volume                           799.467147
_space_group_name_H-M_alt              'P 1'
_space_group_IT_number                 1

loop_
_space_group_symop_operation_xyz
   'x, y, z'

loop_
   _atom_site_label
   _atom_site_occupancy
   _atom_site_fract_x
   _atom_site_fract_y
   _atom_site_fract_z
   _atom_site_adp_type
   _atom_site_U_iso_or_equiv
   _atom_site_type_symbol
   Sm1        1.0    -0.000141     0.000141     0.948818    Uiso  ? Sm
   Sm2        1.0     0.333474     0.666526     0.717849    Uiso  ? Sm
   Sm3        1.0     0.670809     0.329191     0.281081    Uiso  ? Sm
   Sm4        1.0    -0.000026     0.000026     0.050685    Uiso  ? Sm
   Sm5        1.0     0.333359     0.666641     0.615982    Uiso  ? Sm
   Sm6        1.0     0.662524     0.337476     0.385585    Uiso  ? Sm
   Sm7        1.0     0.000076    -0.000076     0.851888    Uiso  ? Sm
   Sm8        1.0     0.333257     0.666743     0.814779    Uiso  ? Sm
   Sm9        1.0     0.666887     0.333113     0.184453    Uiso  ? Sm
   Sm10       1.0    -0.000037     0.000037     0.147483    Uiso  ? Sm
   Sm11       1.0     0.333370     0.666630     0.519183    Uiso  ? Sm
   Sm12       1.0     0.666446     0.333554     0.482214    Uiso  ? Sm
   Co1        1.0     0.666667     0.333333     0.833333    Uiso  ? Co
   Co2        1.0     0.333580     0.666420     0.166243    Uiso  ? Co
   Co3        1.0    -0.000247     0.000247     0.500423    Uiso  ? Co
   Co4        1.0     0.666566     0.333434     0.945419    Uiso  ? Co
   Co5        1.0     0.666767     0.333233     0.721248    Uiso  ? Co
   Co6        1.0     0.341396     0.658604     0.278451    Uiso  ? Co
   Co7        1.0     0.333238     0.666762     0.054102    Uiso  ? Co
   Co8        1.0     0.000095    -0.000095     0.612565    Uiso  ? Co
   Co9        1.0    -0.008062     0.008062     0.388216    Uiso  ? Co
   Co10       1.0     0.499965     0.000185    -0.000221    Uiso  ? Co
   Co11       1.0     0.499939     0.500061    -0.000220    Uiso  ? Co
   Co12       1.0    -0.000185     0.500035    -0.000221    Uiso  ? Co
   Co13       1.0     0.166667     0.833333     0.333333    Uiso  ? Co
   Co14       1.0     0.833369     0.666481     0.666888    Uiso  ? Co
   Co15       1.0     0.833394     0.166606     0.666887    Uiso  ? Co
   Co16       1.0     0.333519     0.166631     0.666888    Uiso  ? Co
   Co17       1.0     0.997577     0.498698     0.891449    Uiso  ? Co
   Co18       1.0     0.501302     0.002423     0.891449    Uiso  ? Co
   Co19       1.0     0.501019     0.498981     0.891485    Uiso  ? Co
   Co20       1.0     0.335757     0.167968     0.775218    Uiso  ? Co
   Co21       1.0     0.832032     0.664243     0.775218    Uiso  ? Co
   Co22       1.0     0.832315     0.167685     0.775182    Uiso  ? Co
   Co23       1.0     0.665773     0.831009     0.223929    Uiso  ? Co
   Co24       1.0     0.168991     0.334227     0.223929    Uiso  ? Co
   Co25       1.0     0.169098     0.830902     0.223705    Uiso  ? Co
   Co26       1.0     0.002364     0.501429     0.108059    Uiso  ? Co
   Co27       1.0     0.498571     0.997636     0.108059    Uiso  ? Co
   Co28       1.0     0.498708     0.501292     0.108009    Uiso  ? Co
   Co29       1.0     0.330970     0.165238     0.558607    Uiso  ? Co
   Co30       1.0     0.834762     0.669030     0.558607    Uiso  ? Co
   Co31       1.0     0.834625     0.165375     0.558658    Uiso  ? Co
   Co32       1.0     0.667560     0.835658     0.442738    Uiso  ? Co
   Co33       1.0     0.164342     0.332440     0.442738    Uiso  ? Co
   Co34       1.0     0.164235     0.835765     0.442962    Uiso  ? Co
   Fe1        1.0     0.329154     0.670846     0.388739    Uiso  ? Fe
   Fe2        1.0     0.000226    -0.000226     0.721253    Uiso  ? Fe
   Fe3        1.0     0.333107     0.666893     0.945414    Uiso  ? Fe
   Fe4        1.0     0.666721     0.333279     0.054151    Uiso  ? Fe
   Fe5        1.0     0.666612     0.333388     0.612515    Uiso  ? Fe
   Fe6        1.0     0.004180    -0.004180     0.277928    Uiso  ? Fe
   Fe7        1.0     0.666667     0.833333     0.333333    Uiso  ? Fe
   Fe8        1.0     0.166667     0.333333     0.333333    Uiso  ? Fe
