
#======================================================================
# CRYSTAL DATA
#----------------------------------------------------------------------
data_VESTA_phase_1

_chemical_name_common                  'Sm12 Co42'
_cell_length_a                         4.989349
_cell_length_b                         4.989349
_cell_length_c                         36.255798
_cell_angle_alpha                      90.000000
_cell_angle_beta                       90.000000
_cell_angle_gamma                      120.000000
_cell_volume                           781.620488
_space_group_name_H-M_alt              'P 1'
_space_group_IT_number                 1

loop_
_space_group_symop_operation_xyz
   'x, y, z'

loop_
   _atom_site_label
   _atom_site_occupancy
   _atom_site_fract_x
   _atom_site_fract_y
   _atom_site_fract_z
   _atom_site_adp_type
   _atom_site_U_iso_or_equiv
   _atom_site_type_symbol
   Sm1        1.0     0.000000     0.000000     0.948748    Uiso  ? Sm
   Sm2        1.0     0.333333     0.666667     0.717919    Uiso  ? Sm
   Sm3        1.0     0.666667     0.333333     0.282081    Uiso  ? Sm
   Sm4        1.0     0.000000     0.000000     0.051252    Uiso  ? Sm
   Sm5        1.0     0.333333     0.666667     0.615415    Uiso  ? Sm
   Sm6        1.0     0.666667     0.333333     0.384585    Uiso  ? Sm
   Sm7        1.0     0.000000     0.000000     0.851945    Uiso  ? Sm
   Sm8        1.0     0.333333     0.666667     0.814722    Uiso  ? Sm
   Sm9        1.0     0.666667     0.333333     0.185278    Uiso  ? Sm
   Sm10       1.0     0.000000     0.000000     0.148055    Uiso  ? Sm
   Sm11       1.0     0.333333     0.666667     0.518612    Uiso  ? Sm
   Sm12       1.0     0.666667     0.333333     0.481388    Uiso  ? Sm
   Co1        1.0     0.666667     0.333333     0.833333    Uiso  ? Co
   Co2        1.0     0.333333     0.666667     0.166667    Uiso  ? Co
   Co3        1.0     0.000000     0.000000     0.500000    Uiso  ? Co
   Co4        1.0     0.666667     0.333333     0.054770    Uiso  ? Co
   Co5        1.0     0.000000     0.000000     0.278563    Uiso  ? Co
   Co6        1.0     0.666667     0.333333     0.611897    Uiso  ? Co
   Co7        1.0     0.666667     0.333333     0.945235    Uiso  ? Co
   Co8        1.0     0.666667     0.333333     0.721432    Uiso  ? Co
   Co9        1.0     0.333333     0.666667     0.278568    Uiso  ? Co
   Co10       1.0     0.333333     0.666667     0.054765    Uiso  ? Co
   Co11       1.0     0.000000     0.000000     0.611902    Uiso  ? Co
   Co12       1.0     0.000000     0.000000     0.388098    Uiso  ? Co
   Co13       1.0     0.500000     0.000000     0.000000    Uiso  ? Co
   Co14       1.0     0.500000     0.500000     0.000000    Uiso  ? Co
   Co15       1.0     0.000000     0.500000     0.000000    Uiso  ? Co
   Co16       1.0     0.166667     0.333333     0.333333    Uiso  ? Co
   Co17       1.0     0.166667     0.833333     0.333333    Uiso  ? Co
   Co18       1.0     0.666667     0.833333     0.333333    Uiso  ? Co
   Co19       1.0     0.833333     0.666667     0.666667    Uiso  ? Co
   Co20       1.0     0.833333     0.166667     0.666667    Uiso  ? Co
   Co21       1.0     0.333333     0.166667     0.666667    Uiso  ? Co
   Co22       1.0     0.998449     0.499224     0.891555    Uiso  ? Co
   Co23       1.0     0.500776     0.001551     0.891555    Uiso  ? Co
   Co24       1.0     0.500776     0.499224     0.891555    Uiso  ? Co
   Co25       1.0     0.334885     0.167442     0.775111    Uiso  ? Co
   Co26       1.0     0.832558     0.665115     0.775111    Uiso  ? Co
   Co27       1.0     0.832558     0.167442     0.775111    Uiso  ? Co
   Co28       1.0     0.665115     0.832558     0.224889    Uiso  ? Co
   Co29       1.0     0.167442     0.334885     0.224889    Uiso  ? Co
   Co30       1.0     0.167442     0.832558     0.224889    Uiso  ? Co
   Co31       1.0     0.001551     0.500776     0.108445    Uiso  ? Co
   Co32       1.0     0.499224     0.998449     0.108445    Uiso  ? Co
   Co33       1.0     0.499224     0.500776     0.108445    Uiso  ? Co
   Co34       1.0     0.331782     0.165891     0.558222    Uiso  ? Co
   Co35       1.0     0.834109     0.668218     0.558222    Uiso  ? Co
   Co36       1.0     0.834109     0.165891     0.558222    Uiso  ? Co
   Co37       1.0     0.668218     0.834109     0.441778    Uiso  ? Co
   Co38       1.0     0.165891     0.331782     0.441778    Uiso  ? Co
   Co39       1.0     0.165891     0.834109     0.441778    Uiso  ? Co
   Fe1        1.0     0.333333     0.666667     0.388103    Uiso  ? Fe
   Fe2        1.0     0.000000     0.000000     0.721437    Uiso  ? Fe
   Fe3        1.0     0.333333     0.666667     0.945230    Uiso  ? Fe
