
#======================================================================
# CRYSTAL DATA
#----------------------------------------------------------------------
data_VESTA_phase_1

_chemical_name_common                  'Sm12 Co42'
_cell_length_a                         5.045655
_cell_length_b                         5.061422
_cell_length_c                         36.110455
_cell_angle_alpha                      90.000000
_cell_angle_beta                       90.000000
_cell_angle_gamma                      120.000000
_cell_volume                           798.644930
_space_group_name_H-M_alt              'P 1'
_space_group_IT_number                 1

loop_
_space_group_symop_operation_xyz
   'x, y, z'

loop_
   _atom_site_label
   _atom_site_occupancy
   _atom_site_fract_x
   _atom_site_fract_y
   _atom_site_fract_z
   _atom_site_adp_type
   _atom_site_U_iso_or_equiv
   _atom_site_type_symbol
   Sm1        1.0     0.000182     0.000091     0.948889    Uiso  ? Sm
   Sm2        1.0     0.333151     0.666576     0.717778    Uiso  ? Sm
   Sm3        1.0     0.672410     0.336205     0.281620    Uiso  ? Sm
   Sm4        1.0    -0.000298    -0.000149     0.050965    Uiso  ? Sm
   Sm5        1.0     0.333631     0.666816     0.615702    Uiso  ? Sm
   Sm6        1.0     0.660923     0.330461     0.385046    Uiso  ? Sm
   Sm7        1.0     0.000398     0.000199     0.851911    Uiso  ? Sm
   Sm8        1.0     0.332935     0.666468     0.814756    Uiso  ? Sm
   Sm9        1.0     0.667152     0.333576     0.184885    Uiso  ? Sm
   Sm10       1.0    -0.000376    -0.000188     0.147823    Uiso  ? Sm
   Sm11       1.0     0.333709     0.666855     0.518843    Uiso  ? Sm
   Sm12       1.0     0.666182     0.333091     0.481782    Uiso  ? Sm
   Co1        1.0     0.666667     0.333333     0.833333    Uiso  ? Co
   Co2        1.0     0.334155     0.667077     0.166528    Uiso  ? Co
   Co3        1.0    -0.000822    -0.000411     0.500139    Uiso  ? Co
   Co4        1.0     0.667881     0.333940     0.945528    Uiso  ? Co
   Co5        1.0     0.665453     0.332726     0.721139    Uiso  ? Co
   Co6        1.0     0.343035     0.671517     0.278547    Uiso  ? Co
   Co7        1.0     0.332022     0.666011     0.054338    Uiso  ? Co
   Co8        1.0     0.001311     0.000656     0.612328    Uiso  ? Co
   Co9        1.0    -0.009702    -0.004851     0.388120    Uiso  ? Co
   Co10       1.0     0.499983     0.000071    -0.000047    Uiso  ? Co
   Co11       1.0     0.499983     0.499912    -0.000047    Uiso  ? Co
   Co12       1.0    -0.000219     0.499890    -0.000042    Uiso  ? Co
   Co13       1.0     0.166667     0.333333     0.333333    Uiso  ? Co
   Co14       1.0     0.166667     0.833333     0.333333    Uiso  ? Co
   Co15       1.0     0.833351     0.666596     0.666713    Uiso  ? Co
   Co16       1.0     0.833351     0.166755     0.666713    Uiso  ? Co
   Co17       1.0     0.333553     0.166776     0.666709    Uiso  ? Co
   Co18       1.0     0.997422     0.498711     0.891406    Uiso  ? Co
   Co19       1.0     0.501258     0.002127     0.891557    Uiso  ? Co
   Co20       1.0     0.501258     0.499130     0.891557    Uiso  ? Co
   Co21       1.0     0.335911     0.167956     0.775261    Uiso  ? Co
   Co22       1.0     0.832075     0.664539     0.775110    Uiso  ? Co
   Co23       1.0     0.832075     0.167536     0.775110    Uiso  ? Co
   Co24       1.0     0.667235     0.833617     0.224418    Uiso  ? Co
   Co25       1.0     0.169243     0.336190     0.224301    Uiso  ? Co
   Co26       1.0     0.169243     0.833053     0.224301    Uiso  ? Co
   Co27       1.0     0.002624     0.501312     0.108420    Uiso  ? Co
   Co28       1.0     0.498508     0.997726     0.108268    Uiso  ? Co
   Co29       1.0     0.498508     0.500782     0.108268    Uiso  ? Co
   Co30       1.0     0.330710     0.165355     0.558246    Uiso  ? Co
   Co31       1.0     0.834825     0.668941     0.558399    Uiso  ? Co
   Co32       1.0     0.834825     0.165884     0.558399    Uiso  ? Co
   Co33       1.0     0.666099     0.833049     0.442248    Uiso  ? Co
   Co34       1.0     0.164090     0.330477     0.442365    Uiso  ? Co
   Co35       1.0     0.164090     0.833614     0.442365    Uiso  ? Co
   Fe1        1.0     0.327631     0.663815     0.388115    Uiso  ? Fe
   Fe2        1.0     0.000905     0.000452     0.721137    Uiso  ? Fe
   Fe3        1.0     0.332429     0.666214     0.945530    Uiso  ? Fe
   Fe4        1.0     0.667390     0.333695     0.054340    Uiso  ? Fe
   Fe5        1.0     0.665943     0.332972     0.612327    Uiso  ? Fe
   Fe6        1.0     0.005703     0.002851     0.278551    Uiso  ? Fe
   Fe7        1.0     0.666667     0.833333     0.333333    Uiso  ? Fe
