
#======================================================================
# CRYSTAL DATA
#----------------------------------------------------------------------
data_VESTA_phase_1

_chemical_name_common                  'Sm12 Co42'
_cell_length_a                         5.043219
_cell_length_b                         5.043219
_cell_length_c                         36.137028
_cell_angle_alpha                      90.000000
_cell_angle_beta                       90.000000
_cell_angle_gamma                      120.000000
_cell_volume                           795.973574
_space_group_name_H-M_alt              'P 1'
_space_group_IT_number                 1

loop_
_space_group_symop_operation_xyz
   'x, y, z'

loop_
   _atom_site_label
   _atom_site_occupancy
   _atom_site_fract_x
   _atom_site_fract_y
   _atom_site_fract_z
   _atom_site_adp_type
   _atom_site_U_iso_or_equiv
   _atom_site_type_symbol
   Sm1        1.0     0.000000     0.000000     0.948956    Uiso  ? Sm
   Sm2        1.0     0.333333     0.666667     0.717758    Uiso  ? Sm
   Sm3        1.0     0.666667     0.333333     0.281895    Uiso  ? Sm
   Sm4        1.0     0.000000     0.000000     0.051175    Uiso  ? Sm
   Sm5        1.0     0.333333     0.666667     0.615592    Uiso  ? Sm
   Sm6        1.0     0.666667     0.333333     0.384181    Uiso  ? Sm
   Sm7        1.0     0.000000     0.000000     0.851931    Uiso  ? Sm
   Sm8        1.0     0.333333     0.666667     0.814773    Uiso  ? Sm
   Sm9        1.0     0.666667     0.333333     0.185431    Uiso  ? Sm
   Sm10       1.0     0.000000     0.000000     0.148356    Uiso  ? Sm
   Sm11       1.0     0.333333     0.666667     0.518583    Uiso  ? Sm
   Sm12       1.0     0.666667     0.333333     0.481384    Uiso  ? Sm
   Co1        1.0     0.666667     0.333333     0.833330    Uiso  ? Co
   Co2        1.0     0.333333     0.666667     0.165871    Uiso  ? Co
   Co3        1.0     0.000000     0.000000     0.500023    Uiso  ? Co
   Co4        1.0     0.000000     0.000000     0.278511    Uiso  ? Co
   Co5        1.0     0.666667     0.333333     0.945568    Uiso  ? Co
   Co6        1.0     0.666667     0.333333     0.721142    Uiso  ? Co
   Co7        1.0     0.333333     0.666667     0.279447    Uiso  ? Co
   Co8        1.0     0.333333     0.666667     0.054563    Uiso  ? Co
   Co9        1.0     0.000000     0.000000     0.612246    Uiso  ? Co
   Co10       1.0     0.000000     0.000000     0.388072    Uiso  ? Co
   Co11       1.0     0.499912    -0.000175     0.000006    Uiso  ? Co
   Co12       1.0     0.499912     0.500088     0.000006    Uiso  ? Co
   Co13       1.0     0.000175     0.500088     0.000006    Uiso  ? Co
   Co14       1.0     0.165719     0.331439     0.333196    Uiso  ? Co
   Co15       1.0     0.165719     0.834281     0.333196    Uiso  ? Co
   Co16       1.0     0.668561     0.834281     0.333196    Uiso  ? Co
   Co17       1.0     0.833310     0.666621     0.666665    Uiso  ? Co
   Co18       1.0     0.833310     0.166690     0.666665    Uiso  ? Co
   Co19       1.0     0.333379     0.166690     0.666665    Uiso  ? Co
   Co20       1.0     0.997535     0.498768     0.891496    Uiso  ? Co
   Co21       1.0     0.501232     0.002465     0.891496    Uiso  ? Co
   Co22       1.0     0.501232     0.498768     0.891496    Uiso  ? Co
   Co23       1.0     0.335302     0.167651     0.775176    Uiso  ? Co
   Co24       1.0     0.832349     0.664698     0.775176    Uiso  ? Co
   Co25       1.0     0.832349     0.167651     0.775176    Uiso  ? Co
   Co26       1.0     0.663101     0.831550     0.225126    Uiso  ? Co
   Co27       1.0     0.168450     0.336899     0.225126    Uiso  ? Co
   Co28       1.0     0.168450     0.831550     0.225126    Uiso  ? Co
   Co29       1.0     0.001346     0.500673     0.108514    Uiso  ? Co
   Co30       1.0     0.499327     0.998654     0.108514    Uiso  ? Co
   Co31       1.0     0.499327     0.500673     0.108514    Uiso  ? Co
   Co32       1.0     0.331106     0.165553     0.558162    Uiso  ? Co
   Co33       1.0     0.834447     0.668894     0.558162    Uiso  ? Co
   Co34       1.0     0.834447     0.165553     0.558162    Uiso  ? Co
   Co35       1.0     0.668750     0.834375     0.441788    Uiso  ? Co
   Co36       1.0     0.165625     0.331250     0.441788    Uiso  ? Co
   Co37       1.0     0.165625     0.834375     0.441788    Uiso  ? Co
   Fe1        1.0     0.333333     0.666667     0.387694    Uiso  ? Fe
   Fe2        1.0     0.000000     0.000000     0.721087    Uiso  ? Fe
   Fe3        1.0     0.333333     0.666667     0.945510    Uiso  ? Fe
   Fe4        1.0     0.666667     0.333333     0.054267    Uiso  ? Fe
   Fe5        1.0     0.666667     0.333333     0.612263    Uiso  ? Fe
