
#======================================================================
# CRYSTAL DATA
#----------------------------------------------------------------------
data_VESTA_phase_1

_chemical_name_common                  'Sm12 Co42'
_cell_length_a                         5.036551
_cell_length_b                         5.036551
_cell_length_c                         36.173523
_cell_angle_alpha                      90.000000
_cell_angle_beta                       90.000000
_cell_angle_gamma                      120.000252
_cell_volume                           794.670133
_space_group_name_H-M_alt              'P 1'
_space_group_IT_number                 1

loop_
_space_group_symop_operation_xyz
   'x, y, z'

loop_
   _atom_site_label
   _atom_site_occupancy
   _atom_site_fract_x
   _atom_site_fract_y
   _atom_site_fract_z
   _atom_site_adp_type
   _atom_site_U_iso_or_equiv
   _atom_site_type_symbol
   Sm1        1.0    -0.000002     0.000002     0.948961    Uiso  ? Sm
   Sm2        1.0     0.333334     0.666666     0.717525    Uiso  ? Sm
   Sm3        1.0     0.666668     0.333332     0.281959    Uiso  ? Sm
   Sm4        1.0    -0.000000     0.000000     0.051209    Uiso  ? Sm
   Sm5        1.0     0.333334     0.666666     0.615272    Uiso  ? Sm
   Sm6        1.0     0.666667     0.333333     0.384329    Uiso  ? Sm
   Sm7        1.0    -0.000002     0.000002     0.851921    Uiso  ? Sm
   Sm8        1.0     0.333332     0.666668     0.814715    Uiso  ? Sm
   Sm9        1.0     0.666668     0.333333     0.185455    Uiso  ? Sm
   Sm10       1.0     0.000001    -0.000001     0.148375    Uiso  ? Sm
   Sm11       1.0     0.333334     0.666666     0.518783    Uiso  ? Sm
   Sm12       1.0     0.666667     0.333333     0.481642    Uiso  ? Sm
   Co1        1.0     0.666665     0.333335     0.833376    Uiso  ? Co
   Co2        1.0     0.333335     0.666665     0.165828    Uiso  ? Co
   Co3        1.0     0.000000    -0.000000     0.499231    Uiso  ? Co
   Co4        1.0     0.000002    -0.000002     0.278422    Uiso  ? Co
   Co5        1.0     0.666664     0.333336     0.611834    Uiso  ? Co
   Co6        1.0     0.666669     0.333331     0.945566    Uiso  ? Co
   Co7        1.0     0.666665     0.333335     0.721422    Uiso  ? Co
   Co8        1.0     0.333335     0.666665     0.279508    Uiso  ? Co
   Co9        1.0     0.333333     0.666667     0.054565    Uiso  ? Co
   Co10       1.0     0.000003    -0.000003     0.612762    Uiso  ? Co
   Co11       1.0    -0.000001     0.000001     0.388199    Uiso  ? Co
   Co12       1.0     0.499890     0.999782     0.000005    Uiso  ? Co
   Co13       1.0     0.499890     0.500110     0.000004    Uiso  ? Co
   Co14       1.0     0.000218     0.500110     0.000005    Uiso  ? Co
   Co15       1.0     0.165598     0.331191     0.333215    Uiso  ? Co
   Co16       1.0     0.165598     0.834401     0.333215    Uiso  ? Co
   Co17       1.0     0.668809     0.834402     0.333215    Uiso  ? Co
   Co18       1.0     0.832408     0.664813     0.666523    Uiso  ? Co
   Co19       1.0     0.832407     0.167593     0.666523    Uiso  ? Co
   Co20       1.0     0.335187     0.167592     0.666523    Uiso  ? Co
   Co21       1.0     0.997634     0.498824     0.891489    Uiso  ? Co
   Co22       1.0     0.501176     0.002366     0.891489    Uiso  ? Co
   Co23       1.0     0.501172     0.498828     0.891490    Uiso  ? Co
   Co24       1.0     0.335369     0.167684     0.775129    Uiso  ? Co
   Co25       1.0     0.832316     0.664631     0.775129    Uiso  ? Co
   Co26       1.0     0.832314     0.167686     0.775129    Uiso  ? Co
   Co27       1.0     0.662926     0.831462     0.225142    Uiso  ? Co
   Co28       1.0     0.168538     0.337074     0.225142    Uiso  ? Co
   Co29       1.0     0.168539     0.831461     0.225142    Uiso  ? Co
   Co30       1.0     0.001173     0.500585     0.108512    Uiso  ? Co
   Co31       1.0     0.499415     0.998827     0.108512    Uiso  ? Co
   Co32       1.0     0.499414     0.500586     0.108512    Uiso  ? Co
   Co33       1.0     0.329815     0.164907     0.558468    Uiso  ? Co
   Co34       1.0     0.835093     0.670185     0.558468    Uiso  ? Co
   Co35       1.0     0.835094     0.164906     0.558469    Uiso  ? Co
   Co36       1.0     0.667841     0.833920     0.441799    Uiso  ? Co
   Co37       1.0     0.166080     0.332159     0.441799    Uiso  ? Co
   Co38       1.0     0.166080     0.833920     0.441799    Uiso  ? Co
   Fe1        1.0     0.333336     0.666664     0.387468    Uiso  ? Fe
   Fe2        1.0     0.000002    -0.000002     0.721051    Uiso  ? Fe
   Fe3        1.0     0.333328     0.666672     0.945543    Uiso  ? Fe
   Fe4        1.0     0.666666     0.333334     0.054232    Uiso  ? Fe
