
#======================================================================
# CRYSTAL DATA
#----------------------------------------------------------------------
data_VESTA_phase_1

_chemical_name_common                  'Sm8 Co28'
_cell_length_a                         5.051112
_cell_length_b                         5.051112
_cell_length_c                         24.223478
_cell_angle_alpha                      90.000000
_cell_angle_beta                       90.000000
_cell_angle_gamma                      120.000000
_cell_volume                           535.230781
_space_group_name_H-M_alt              'P 1'
_space_group_IT_number                 1

loop_
_space_group_symop_operation_xyz
   'x, y, z'

loop_
   _atom_site_label
   _atom_site_occupancy
   _atom_site_fract_x
   _atom_site_fract_y
   _atom_site_fract_z
   _atom_site_adp_type
   _atom_site_U_iso_or_equiv
   _atom_site_type_symbol
   Sm1        1.0     0.666667     0.333333     0.527597    Uiso  ? Sm
   Sm2        1.0     0.333333     0.666667     0.027597    Uiso  ? Sm
   Sm3        1.0     0.333333     0.666667     0.472403    Uiso  ? Sm
   Sm4        1.0     0.666667     0.333333     0.972403    Uiso  ? Sm
   Sm5        1.0     0.666667     0.333333     0.670620    Uiso  ? Sm
   Sm6        1.0     0.333333     0.666667     0.170620    Uiso  ? Sm
   Sm7        1.0     0.333333     0.666667     0.329380    Uiso  ? Sm
   Sm8        1.0     0.666667     0.333333     0.829380    Uiso  ? Sm
   Co1        1.0     0.000000     0.000000     0.500000    Uiso  ? Co
   Co2        1.0     0.000000     0.000000     0.000000    Uiso  ? Co
   Co3        1.0     0.000000     0.000000     0.668013    Uiso  ? Co
   Co4        1.0     0.000000     0.000000     0.168013    Uiso  ? Co
   Co5        1.0     0.000000     0.000000     0.331987    Uiso  ? Co
   Co6        1.0     0.000000     0.000000     0.831987    Uiso  ? Co
   Co7        1.0     0.666667     0.333333     0.329760    Uiso  ? Co
   Co8        1.0     0.333333     0.666667     0.829760    Uiso  ? Co
   Co9        1.0     0.333333     0.666667     0.670240    Uiso  ? Co
   Co10       1.0     0.666667     0.333333     0.170240    Uiso  ? Co
   Co11       1.0     0.666338     0.833169     0.586789    Uiso  ? Co
   Co12       1.0     0.166831     0.833169     0.586789    Uiso  ? Co
   Co13       1.0     0.166831     0.333662     0.586789    Uiso  ? Co
   Co14       1.0     0.833169     0.666338     0.086789    Uiso  ? Co
   Co15       1.0     0.833169     0.166831     0.086789    Uiso  ? Co
   Co16       1.0     0.333662     0.166831     0.086789    Uiso  ? Co
   Co17       1.0     0.333662     0.166831     0.413211    Uiso  ? Co
   Co18       1.0     0.833169     0.666338     0.413211    Uiso  ? Co
   Co19       1.0     0.833169     0.166831     0.413211    Uiso  ? Co
   Co20       1.0     0.166831     0.833169     0.913211    Uiso  ? Co
   Co21       1.0     0.666338     0.833169     0.913211    Uiso  ? Co
   Co22       1.0     0.166831     0.333662     0.913211    Uiso  ? Co
   Fe1        1.0     0.834186     0.668372     0.250000    Uiso  ? Fe
   Fe2        1.0     0.668372     0.834186     0.750000    Uiso  ? Fe
   Fe3        1.0     0.331628     0.165814     0.250000    Uiso  ? Fe
   Fe4        1.0     0.165814     0.331628     0.750000    Uiso  ? Fe
   Fe5        1.0     0.834186     0.165814     0.250000    Uiso  ? Fe
   Fe6        1.0     0.165814     0.834186     0.750000    Uiso  ? Fe
