
#======================================================================
# CRYSTAL DATA
#----------------------------------------------------------------------
data_VESTA_phase_1

_chemical_name_common                  'Sm8 Co28'
_cell_length_a                         5.018533
_cell_length_b                         5.018534
_cell_length_c                         24.354839
_cell_angle_alpha                      90.000000
_cell_angle_beta                       90.000000
_cell_angle_gamma                      119.971169
_cell_volume                           531.368260
_space_group_name_H-M_alt              'P 1'
_space_group_IT_number                 1

loop_
_space_group_symop_operation_xyz
   'x, y, z'

loop_
   _atom_site_label
   _atom_site_occupancy
   _atom_site_fract_x
   _atom_site_fract_y
   _atom_site_fract_z
   _atom_site_adp_type
   _atom_site_U_iso_or_equiv
   _atom_site_type_symbol
   Sm1        1.0     0.666552     0.333448     0.527789    Uiso  ? Sm
   Sm2        1.0     0.333448     0.666552     0.027789    Uiso  ? Sm
   Sm3        1.0     0.333448     0.666552     0.472211    Uiso  ? Sm
   Sm4        1.0     0.666552     0.333448     0.972211    Uiso  ? Sm
   Sm5        1.0     0.666576     0.333424     0.671339    Uiso  ? Sm
   Sm6        1.0     0.333424     0.666576     0.171339    Uiso  ? Sm
   Sm7        1.0     0.333424     0.666576     0.328661    Uiso  ? Sm
   Sm8        1.0     0.666576     0.333424     0.828661    Uiso  ? Sm
   Co1        1.0     0.000000     0.000000     0.500000    Uiso  ? Co
   Co2        1.0     0.000000     0.000000     0.000000    Uiso  ? Co
   Co3        1.0    -0.003154     0.003154     0.667451    Uiso  ? Co
   Co4        1.0     0.003154    -0.003154     0.167451    Uiso  ? Co
   Co5        1.0     0.003154    -0.003154     0.332549    Uiso  ? Co
   Co6        1.0    -0.003154     0.003154     0.832549    Uiso  ? Co
   Co7        1.0     0.663336     0.336664     0.330748    Uiso  ? Co
   Co8        1.0     0.336664     0.663336     0.830748    Uiso  ? Co
   Co9        1.0     0.336664     0.663336     0.669252    Uiso  ? Co
   Co10       1.0     0.663336     0.336664     0.169252    Uiso  ? Co
   Co11       1.0     0.834507     0.165493     0.250000    Uiso  ? Co
   Co12       1.0     0.165493     0.834507     0.750000    Uiso  ? Co
   Co13       1.0     0.667702     0.834122     0.587070    Uiso  ? Co
   Co14       1.0     0.167186     0.832814     0.587030    Uiso  ? Co
   Co15       1.0     0.165878     0.332298     0.587070    Uiso  ? Co
   Co16       1.0     0.834122     0.667702     0.087070    Uiso  ? Co
   Co17       1.0     0.832814     0.167186     0.087030    Uiso  ? Co
   Co18       1.0     0.332298     0.165878     0.087070    Uiso  ? Co
   Co19       1.0     0.332298     0.165878     0.412930    Uiso  ? Co
   Co20       1.0     0.834122     0.667702     0.412930    Uiso  ? Co
   Co21       1.0     0.832814     0.167186     0.412970    Uiso  ? Co
   Co22       1.0     0.167186     0.832814     0.912970    Uiso  ? Co
   Co23       1.0     0.667702     0.834122     0.912930    Uiso  ? Co
   Co24       1.0     0.165878     0.332298     0.912930    Uiso  ? Co
   Fe1        1.0     0.834170     0.668058     0.250000    Uiso  ? Fe
   Fe2        1.0     0.668058     0.834170     0.750000    Uiso  ? Fe
   Fe3        1.0     0.331942     0.165830     0.250000    Uiso  ? Fe
   Fe4        1.0     0.165830     0.331942     0.750000    Uiso  ? Fe
