
#======================================================================
# CRYSTAL DATA
#----------------------------------------------------------------------
data_VESTA_phase_1

_chemical_name_common                  'Sm12 Co42                             '
_cell_length_a                         5.074326
_cell_length_b                         5.074203
_cell_length_c                         35.907066
_cell_angle_alpha                      90.001411
_cell_angle_beta                       89.999901
_cell_angle_gamma                      120.001991
_cell_volume                           800.659921
_space_group_name_H-M_alt              'P 1'
_space_group_IT_number                 1

loop_
_space_group_symop_operation_xyz
   'x, y, z'

loop_
   _atom_site_label
   _atom_site_occupancy
   _atom_site_fract_x
   _atom_site_fract_y
   _atom_site_fract_z
   _atom_site_adp_type
   _atom_site_U_iso_or_equiv
   _atom_site_type_symbol
   Sm1        1.0     0.999886     0.000010     0.948358    Uiso  ? Sm
   Sm2        1.0     0.333396     0.666631     0.715975    Uiso  ? Sm
   Sm3        1.0     0.666645     0.333323     0.284046    Uiso  ? Sm
   Sm4        1.0     0.999881     0.000066     0.051617    Uiso  ? Sm
   Sm5        1.0     0.333408     0.666594     0.615557    Uiso  ? Sm
   Sm6        1.0     0.666699     0.333326     0.384467    Uiso  ? Sm
   Sm7        1.0     0.000037     0.000022     0.850910    Uiso  ? Sm
   Sm8        1.0     0.333392     0.666655     0.811178    Uiso  ? Sm
   Sm9        1.0     0.666594     0.333411     0.188827    Uiso  ? Sm
   Sm10       1.0     0.999903     0.000064     0.149078    Uiso  ? Sm
   Sm11       1.0     0.333471     0.666615     0.520249    Uiso  ? Sm
   Sm12       1.0     0.666806     0.333285     0.479792    Uiso  ? Sm
   Co1        1.0     0.333386     0.666701     0.945840    Uiso  ? Co
   Co2        1.0     0.666707     0.333307     0.054155    Uiso  ? Co
   Co3        1.0     0.666312     0.333285     0.945145    Uiso  ? Co
   Co4        1.0     0.666766     0.333293     0.719056    Uiso  ? Co
   Co5        1.0     0.333291     0.666624     0.280989    Uiso  ? Co
   Co6        1.0     0.332967     0.666881     0.054811    Uiso  ? Co
   Co7        1.0     0.000075     0.999853     0.612740    Uiso  ? Co
   Co8        1.0     0.000044     0.000016     0.387294    Uiso  ? Co
   Co9        1.0     0.499914     0.000101     0.999978    Uiso  ? Co
   Co10       1.0     0.499905     0.500043     0.000005    Uiso  ? Co
   Co11       1.0     0.999818     0.500013     0.999962    Uiso  ? Co
   Co12       1.0     0.166648     0.333271     0.334123    Uiso  ? Co
   Co13       1.0     0.166641     0.833353     0.334123    Uiso  ? Co
   Co14       1.0     0.666733     0.833352     0.334123    Uiso  ? Co
   Co15       1.0     0.833328     0.666453     0.665876    Uiso  ? Co
   Co16       1.0     0.833291     0.166721     0.665868    Uiso  ? Co
   Co17       1.0     0.333562     0.166694     0.665874    Uiso  ? Co
   Co18       1.0     0.002938     0.501516     0.891620    Uiso  ? Co
   Co19       1.0     0.498499     0.997050     0.891608    Uiso  ? Co
   Co20       1.0     0.498494     0.501548     0.891604    Uiso  ? Co
   Co21       1.0     0.340856     0.170342     0.773059    Uiso  ? Co
   Co22       1.0     0.829730     0.659235     0.773058    Uiso  ? Co
   Co23       1.0     0.829720     0.170330     0.773059    Uiso  ? Co
   Co24       1.0     0.659042     0.829624     0.226972    Uiso  ? Co
   Co25       1.0     0.170361     0.340920     0.226969    Uiso  ? Co
   Co26       1.0     0.170403     0.829597     0.226975    Uiso  ? Co
   Co27       1.0     0.996919     0.498578     0.108380    Uiso  ? Co
   Co28       1.0     0.501375     0.003040     0.108378    Uiso  ? Co
   Co29       1.0     0.501354     0.498582     0.108355    Uiso  ? Co
   Co30       1.0     0.327231     0.163511     0.559053    Uiso  ? Co
   Co31       1.0     0.836514     0.672766     0.559048    Uiso  ? Co
   Co32       1.0     0.836550     0.163491     0.559056    Uiso  ? Co
   Co33       1.0     0.672740     0.836294     0.440952    Uiso  ? Co
   Co34       1.0     0.163774     0.327314     0.440953    Uiso  ? Co
   Co35       1.0     0.163720     0.836304     0.440948    Uiso  ? Co
   Cr1        1.0     0.333260     0.666719     0.166131    Uiso  ? Cr
   Cr2        1.0     0.000173     0.999941     0.499999    Uiso  ? Cr
   Cr3        1.0     0.666713     0.333344     0.833861    Uiso  ? Cr
   Cr4        1.0     0.333375     0.666642     0.390305    Uiso  ? Cr
   Cr5        1.0    -0.000004     0.000041     0.277724    Uiso  ? Cr
   Cr6        1.0     0.666697     0.333328     0.609639    Uiso  ? Cr
   Cr7        1.0     0.000063    -0.000021     0.722278    Uiso  ? Cr
