
#======================================================================
# CRYSTAL DATA
#----------------------------------------------------------------------
data_VESTA_phase_1

_chemical_name_common                  'Sm12 Co42                             '
_cell_length_a                         5.037896
_cell_length_b                         5.037864
_cell_length_c                         36.398716
_cell_angle_alpha                      89.999519
_cell_angle_beta                       90.000832
_cell_angle_gamma                      119.997986
_cell_volume                           800.057382
_space_group_name_H-M_alt              'P 1'
_space_group_IT_number                 1

loop_
_space_group_symop_operation_xyz
   'x, y, z'

loop_
   _atom_site_label
   _atom_site_occupancy
   _atom_site_fract_x
   _atom_site_fract_y
   _atom_site_fract_z
   _atom_site_adp_type
   _atom_site_U_iso_or_equiv
   _atom_site_type_symbol
   Sm1        1.0     0.000006     0.000017     0.949048    Uiso  ? Sm
   Sm2        1.0     0.333318     0.666650     0.717644    Uiso  ? Sm
   Sm3        1.0     0.666671     0.333360     0.282361    Uiso  ? Sm
   Sm4        1.0     0.999999     0.000011     0.050938    Uiso  ? Sm
   Sm5        1.0     0.333343     0.666657     0.615680    Uiso  ? Sm
   Sm6        1.0     0.666673     0.333305     0.384329    Uiso  ? Sm
   Sm7        1.0    -0.000003    -0.000001     0.852830    Uiso  ? Sm
   Sm8        1.0     0.333333     0.666658     0.813882    Uiso  ? Sm
   Sm9        1.0     0.666667     0.333353     0.186104    Uiso  ? Sm
   Sm10       1.0     0.000010     0.000024     0.147158    Uiso  ? Sm
   Sm11       1.0     0.333338     0.666664     0.519492    Uiso  ? Sm
   Sm12       1.0     0.666672     0.333335     0.480527    Uiso  ? Sm
   Co1        1.0     0.999918    -0.000027     0.720681    Uiso  ? Co
   Co2        1.0     0.333285     0.666601     0.945996    Uiso  ? Co
   Co3        1.0     0.666478     0.333136     0.053983    Uiso  ? Co
   Co4        1.0     0.999916     0.999705     0.279327    Uiso  ? Co
   Co5        1.0     0.333309     0.666497     0.387317    Uiso  ? Co
   Co6        1.0     0.666722     0.333323     0.612702    Uiso  ? Co
   Co7        1.0     0.666744     0.333458     0.945776    Uiso  ? Co
   Co8        1.0     0.666706     0.333321     0.720890    Uiso  ? Co
   Co9        1.0     0.333434     0.667015     0.279112    Uiso  ? Co
   Co10       1.0     0.333516     0.666900     0.054217    Uiso  ? Co
   Co11       1.0     0.000003    -0.000008     0.612463    Uiso  ? Co
   Co12       1.0     0.000032     0.000073     0.387549    Uiso  ? Co
   Co13       1.0     0.499996    -0.000005     0.999976    Uiso  ? Co
   Co14       1.0     0.499986     0.500004     0.999994    Uiso  ? Co
   Co15       1.0     0.000014     0.500005     0.000003    Uiso  ? Co
   Co16       1.0     0.166659     0.333320     0.333310    Uiso  ? Co
   Co17       1.0     0.166655     0.833341     0.333346    Uiso  ? Co
   Co18       1.0     0.666691     0.833344     0.333336    Uiso  ? Co
   Co19       1.0     0.833339     0.666682     0.666683    Uiso  ? Co
   Co20       1.0     0.833342     0.166633     0.666682    Uiso  ? Co
   Co21       1.0     0.333291     0.166635     0.666685    Uiso  ? Co
   Co22       1.0     0.000939     0.500486     0.892526    Uiso  ? Co
   Co23       1.0     0.499510     0.999057     0.892531    Uiso  ? Co
   Co24       1.0     0.499535     0.500495     0.892526    Uiso  ? Co
   Co25       1.0     0.332304     0.166139     0.774176    Uiso  ? Co
   Co26       1.0     0.833834     0.667664     0.774179    Uiso  ? Co
   Co27       1.0     0.833841     0.166150     0.774181    Uiso  ? Co
   Co28       1.0     0.667667     0.833851     0.225815    Uiso  ? Co
   Co29       1.0     0.166144     0.332306     0.225826    Uiso  ? Co
   Co30       1.0     0.166163     0.833856     0.225808    Uiso  ? Co
   Co31       1.0     0.999019     0.499511     0.107452    Uiso  ? Co
   Co32       1.0     0.500482     0.000949     0.107468    Uiso  ? Co
   Co33       1.0     0.500496     0.499518     0.107462    Uiso  ? Co
   Co34       1.0     0.334334     0.167178     0.559219    Uiso  ? Co
   Co35       1.0     0.832832     0.665672     0.559216    Uiso  ? Co
   Co36       1.0     0.832837     0.167172     0.559213    Uiso  ? Co
   Co37       1.0     0.665658     0.832827     0.440803    Uiso  ? Co
   Co38       1.0     0.167175     0.334347     0.440808    Uiso  ? Co
   Co39       1.0     0.167181     0.832823     0.440801    Uiso  ? Co
   Cr1        1.0     0.333334     0.666687     0.166661    Uiso  ? Cr
   Cr2        1.0    -0.000005     0.000011     0.499989    Uiso  ? Cr
   Cr3        1.0     0.666658     0.333317     0.833320    Uiso  ? Cr
