
#======================================================================
# CRYSTAL DATA
#----------------------------------------------------------------------
data_VESTA_phase_1

_chemical_name_common                  'Sm12 Co42                             '
_cell_length_a                         5.054077
_cell_length_b                         5.054143
_cell_length_c                         36.163269
_cell_angle_alpha                      89.999657
_cell_angle_beta                       90.000175
_cell_angle_gamma                      120.000618
_cell_volume                           799.990885
_space_group_name_H-M_alt              'P 1'
_space_group_IT_number                 1

loop_
_space_group_symop_operation_xyz
   'x, y, z'

loop_
   _atom_site_label
   _atom_site_occupancy
   _atom_site_fract_x
   _atom_site_fract_y
   _atom_site_fract_z
   _atom_site_adp_type
   _atom_site_U_iso_or_equiv
   _atom_site_type_symbol
   Sm1        1.0     0.000111     0.000002     0.949501    Uiso  ? Sm
   Sm2        1.0     0.333185     0.666821     0.717194    Uiso  ? Sm
   Sm3        1.0     0.666736     0.333312     0.283398    Uiso  ? Sm
   Sm4        1.0     0.000128     0.999980     0.052016    Uiso  ? Sm
   Sm5        1.0     0.333267     0.666743     0.614664    Uiso  ? Sm
   Sm6        1.0     0.666703     0.333212     0.383249    Uiso  ? Sm
   Sm7        1.0     0.999896     0.000043     0.852773    Uiso  ? Sm
   Sm8        1.0     0.333191     0.666725     0.813955    Uiso  ? Sm
   Sm9        1.0     0.666694     0.333296     0.188624    Uiso  ? Sm
   Sm10       1.0     0.000064     0.999942     0.148910    Uiso  ? Sm
   Sm11       1.0     0.333313     0.666571     0.517754    Uiso  ? Sm
   Sm12       1.0     0.666619     0.333239     0.478025    Uiso  ? Sm
   Co1        1.0     0.998017     0.000943     0.720321    Uiso  ? Co
   Co2        1.0     0.332943     0.666829     0.946391    Uiso  ? Co
   Co3        1.0     0.666246     0.333398     0.054550    Uiso  ? Co
   Co4        1.0     0.664700     0.334086     0.612155    Uiso  ? Co
   Co5        1.0     0.667237     0.333189     0.946338    Uiso  ? Co
   Co6        1.0     0.668398     0.332707     0.720315    Uiso  ? Co
   Co7        1.0     0.333364     0.666629     0.280277    Uiso  ? Co
   Co8        1.0     0.333945     0.666589     0.055242    Uiso  ? Co
   Co9        1.0     0.001870     0.999341     0.611397    Uiso  ? Co
   Co10       1.0     0.000043     0.999865     0.386325    Uiso  ? Co
   Co11       1.0     0.499983     0.999596     0.000675    Uiso  ? Co
   Co12       1.0     0.499975     0.500145     0.000628    Uiso  ? Co
   Co13       1.0     0.000586     0.500204     0.000700    Uiso  ? Co
   Co14       1.0     0.166734     0.333356     0.333332    Uiso  ? Co
   Co15       1.0     0.166753     0.833238     0.333331    Uiso  ? Co
   Co16       1.0     0.666626     0.833245     0.333330    Uiso  ? Co
   Co17       1.0     0.833478     0.667315     0.666069    Uiso  ? Co
   Co18       1.0     0.833599     0.166469     0.665779    Uiso  ? Co
   Co19       1.0     0.332768     0.166608     0.666176    Uiso  ? Co
   Co20       1.0     0.000731     0.500397     0.892811    Uiso  ? Co
   Co21       1.0     0.499644     0.999316     0.892827    Uiso  ? Co
   Co22       1.0     0.499642     0.500358     0.892854    Uiso  ? Co
   Co23       1.0     0.332525     0.166471     0.773780    Uiso  ? Co
   Co24       1.0     0.833437     0.667405     0.773821    Uiso  ? Co
   Co25       1.0     0.833419     0.166450     0.773964    Uiso  ? Co
   Co26       1.0     0.659289     0.829609     0.226549    Uiso  ? Co
   Co27       1.0     0.170385     0.340731     0.226549    Uiso  ? Co
   Co28       1.0     0.170406     0.829602     0.226549    Uiso  ? Co
   Co29       1.0     0.997235     0.498513     0.108508    Uiso  ? Co
   Co30       1.0     0.501540     0.002824     0.108535    Uiso  ? Co
   Co31       1.0     0.501477     0.498527     0.108560    Uiso  ? Co
   Co32       1.0     0.336150     0.168060     0.558062    Uiso  ? Co
   Co33       1.0     0.831891     0.663782     0.558101    Uiso  ? Co
   Co34       1.0     0.831854     0.168095     0.558231    Uiso  ? Co
   Co35       1.0     0.674117     0.836979     0.440069    Uiso  ? Co
   Co36       1.0     0.162896     0.325735     0.440069    Uiso  ? Co
   Co37       1.0     0.162925     0.836980     0.440073    Uiso  ? Co
   Cr1        1.0     0.333384     0.666604     0.165987    Uiso  ? Cr
   Cr2        1.0     0.999936     0.999933     0.500647    Uiso  ? Cr
   Cr3        1.0     0.666494     0.333408     0.833376    Uiso  ? Cr
   Cr4        1.0     0.333365     0.666589     0.389550    Uiso  ? Cr
   Cr5        1.0     0.000090    -0.000008     0.277133    Uiso  ? Cr
