
#======================================================================
# CRYSTAL DATA
#----------------------------------------------------------------------
data_VESTA_phase_1

_chemical_name_common                  'Sm12 Co42                             '
_cell_length_a                         5.075212
_cell_length_b                         5.039001
_cell_length_c                         36.305504
_cell_angle_alpha                      90.000954
_cell_angle_beta                       90.000893
_cell_angle_gamma                      120.111877
_cell_volume                           803.176406
_space_group_name_H-M_alt              'P 1'
_space_group_IT_number                 1

loop_
_space_group_symop_operation_xyz
   'x, y, z'

loop_
   _atom_site_label
   _atom_site_occupancy
   _atom_site_fract_x
   _atom_site_fract_y
   _atom_site_fract_z
   _atom_site_adp_type
   _atom_site_U_iso_or_equiv
   _atom_site_type_symbol
   Sm1        1.0     0.999988     0.000008     0.948437    Uiso  ? Sm
   Sm2        1.0     0.333341     0.666675     0.718325    Uiso  ? Sm
   Sm3        1.0     0.666678     0.333345     0.282186    Uiso  ? Sm
   Sm4        1.0     1.000000     0.999991     0.050872    Uiso  ? Sm
   Sm5        1.0     0.333328     0.666645     0.615792    Uiso  ? Sm
   Sm6        1.0     0.666658     0.333332     0.384493    Uiso  ? Sm
   Sm7        1.0     0.000019     0.999991     0.851853    Uiso  ? Sm
   Sm8        1.0     0.333327     0.666692     0.814926    Uiso  ? Sm
   Sm9        1.0     0.666676     0.333344     0.185924    Uiso  ? Sm
   Sm10       1.0     0.999997     0.999983     0.147069    Uiso  ? Sm
   Sm11       1.0     0.333298     0.666677     0.519547    Uiso  ? Sm
   Sm12       1.0     0.666639     0.333320     0.480618    Uiso  ? Sm
   Co1        1.0     0.666653     0.333340     0.833383    Uiso  ? Co
   Co2        1.0     0.999947     0.999845     0.721514    Uiso  ? Co
   Co3        1.0     0.333516     0.666549     0.945192    Uiso  ? Co
   Co4        1.0     0.666566     0.333364     0.053732    Uiso  ? Co
   Co5        1.0     0.999980     0.000017     0.279082    Uiso  ? Co
   Co6        1.0     0.333258     0.666646     0.387448    Uiso  ? Co
   Co7        1.0     0.666623     0.333255     0.612908    Uiso  ? Co
   Co8        1.0     0.666485     0.333445     0.945660    Uiso  ? Co
   Co9        1.0     0.666746     0.333533     0.721163    Uiso  ? Co
   Co10       1.0     0.333370     0.666670     0.278901    Uiso  ? Co
   Co11       1.0     0.333457     0.666643     0.054237    Uiso  ? Co
   Co12       1.0     0.000023     0.000002     0.612421    Uiso  ? Co
   Co13       1.0     0.000086     0.000008     0.387727    Uiso  ? Co
   Co14       1.0     0.499673     0.999349     0.999758    Uiso  ? Co
   Co15       1.0     0.499667     0.500323     0.999769    Uiso  ? Co
   Co16       1.0     0.000640     0.500318     0.999759    Uiso  ? Co
   Co17       1.0     0.166617     0.333239     0.333338    Uiso  ? Co
   Co18       1.0     0.166615     0.833386     0.333334    Uiso  ? Co
   Co19       1.0     0.666766     0.833387     0.333343    Uiso  ? Co
   Co20       1.0     0.833600     0.667207     0.666952    Uiso  ? Co
   Co21       1.0     0.833593     0.166404     0.666963    Uiso  ? Co
   Co22       1.0     0.332813     0.166408     0.666965    Uiso  ? Co
   Co23       1.0     0.997702     0.498841     0.891809    Uiso  ? Co
   Co24       1.0     0.501165     0.002308     0.891801    Uiso  ? Co
   Co25       1.0     0.501174     0.498827     0.891786    Uiso  ? Co
   Co26       1.0     0.335553     0.167788     0.774983    Uiso  ? Co
   Co27       1.0     0.832231     0.664471     0.774990    Uiso  ? Co
   Co28       1.0     0.832230     0.167758     0.774974    Uiso  ? Co
   Co29       1.0     0.667935     0.833969     0.225440    Uiso  ? Co
   Co30       1.0     0.166037     0.332071     0.225435    Uiso  ? Co
   Co31       1.0     0.166038     0.833974     0.225441    Uiso  ? Co
   Co32       1.0     0.998565     0.499271     0.107464    Uiso  ? Co
   Co33       1.0     0.500731     0.001446     0.107471    Uiso  ? Co
   Co34       1.0     0.500732     0.499259     0.107478    Uiso  ? Co
   Co35       1.0     0.334644     0.167332     0.559136    Uiso  ? Co
   Co36       1.0     0.832655     0.665334     0.559135    Uiso  ? Co
   Co37       1.0     0.832660     0.167335     0.559133    Uiso  ? Co
   Co38       1.0     0.665452     0.832727     0.441120    Uiso  ? Co
   Co39       1.0     0.167265     0.334539     0.441125    Uiso  ? Co
   Co40       1.0     0.167270     0.832740     0.441125    Uiso  ? Co
   Cr1        1.0     0.333353     0.666663     0.166407    Uiso  ? Cr
   Cr2        1.0     0.999965     0.000003     0.500156    Uiso  ? Cr
