
#======================================================================
# CRYSTAL DATA
#----------------------------------------------------------------------
data_VESTA_phase_1

_chemical_name_common                  'Sm12 Co42                             '
_cell_length_a                         5.046405
_cell_length_b                         5.046494
_cell_length_c                         36.288296
_cell_angle_alpha                      90.000587
_cell_angle_beta                       89.999367
_cell_angle_gamma                      120.001335
_cell_volume                           800.319154
_space_group_name_H-M_alt              'P 1'
_space_group_IT_number                 1

loop_
_space_group_symop_operation_xyz
   'x, y, z'

loop_
   _atom_site_label
   _atom_site_occupancy
   _atom_site_fract_x
   _atom_site_fract_y
   _atom_site_fract_z
   _atom_site_adp_type
   _atom_site_U_iso_or_equiv
   _atom_site_type_symbol
   Sm1        1.0     0.999993     0.999969     0.949065    Uiso  ? Sm
   Sm2        1.0     0.333331     0.666686     0.717310    Uiso  ? Sm
   Sm3        1.0     0.666676     0.333328     0.282780    Uiso  ? Sm
   Sm4        1.0     0.000024     0.999979     0.051157    Uiso  ? Sm
   Sm5        1.0     0.333312     0.666686     0.614986    Uiso  ? Sm
   Sm6        1.0     0.666678     0.333336     0.383800    Uiso  ? Sm
   Sm7        1.0     0.999964     0.000011     0.852637    Uiso  ? Sm
   Sm8        1.0     0.333312     0.666691     0.813765    Uiso  ? Sm
   Sm9        1.0     0.666681     0.333328     0.186492    Uiso  ? Sm
   Sm10       1.0     0.000022     0.999995     0.147571    Uiso  ? Sm
   Sm11       1.0     0.333338     0.666687     0.518266    Uiso  ? Sm
   Sm12       1.0     0.666681     0.333354     0.478500    Uiso  ? Sm
   Co1        1.0     0.000007     0.000166     0.720411    Uiso  ? Co
   Co2        1.0     0.333145     0.666626     0.946079    Uiso  ? Co
   Co3        1.0     0.666739     0.333325     0.054187    Uiso  ? Co
   Co4        1.0     0.000007     0.999987     0.279872    Uiso  ? Co
   Co5        1.0     0.666536     0.333574     0.612456    Uiso  ? Co
   Co6        1.0     0.666853     0.333325     0.945869    Uiso  ? Co
   Co7        1.0     0.666653     0.333173     0.720435    Uiso  ? Co
   Co8        1.0     0.333385     0.666672     0.279756    Uiso  ? Co
   Co9        1.0     0.333321     0.666607     0.054381    Uiso  ? Co
   Co10       1.0     0.000075     0.999803     0.611683    Uiso  ? Co
   Co11       1.0     0.000019     0.000000     0.387088    Uiso  ? Co
   Co12       1.0     0.500004     0.000024     0.000130    Uiso  ? Co
   Co13       1.0     0.499992     0.499971     0.000132    Uiso  ? Co
   Co14       1.0    -0.000010     0.499986     0.000133    Uiso  ? Co
   Co15       1.0     0.167186     0.334365     0.333869    Uiso  ? Co
   Co16       1.0     0.167172     0.832799     0.333869    Uiso  ? Co
   Co17       1.0     0.665621     0.832804     0.333869    Uiso  ? Co
   Co18       1.0     0.833561     0.667169     0.666235    Uiso  ? Co
   Co19       1.0     0.833624     0.166396     0.666207    Uiso  ? Co
   Co20       1.0     0.332807     0.166431     0.666224    Uiso  ? Co
   Co21       1.0     0.000836     0.500436     0.892535    Uiso  ? Co
   Co22       1.0     0.499503     0.999078     0.892545    Uiso  ? Co
   Co23       1.0     0.499500     0.500439     0.892551    Uiso  ? Co
   Co24       1.0     0.332576     0.166336     0.773845    Uiso  ? Co
   Co25       1.0     0.833687     0.667426     0.773837    Uiso  ? Co
   Co26       1.0     0.833693     0.166341     0.773852    Uiso  ? Co
   Co27       1.0     0.667472     0.833730     0.226357    Uiso  ? Co
   Co28       1.0     0.166289     0.332553     0.226359    Uiso  ? Co
   Co29       1.0     0.166292     0.833701     0.226362    Uiso  ? Co
   Co30       1.0     0.999088     0.499517     0.107705    Uiso  ? Co
   Co31       1.0     0.500483     0.000894     0.107701    Uiso  ? Co
   Co32       1.0     0.500488     0.499528     0.107703    Uiso  ? Co
   Co33       1.0     0.336218     0.168118     0.558518    Uiso  ? Co
   Co34       1.0     0.831878     0.663795     0.558513    Uiso  ? Co
   Co35       1.0     0.831899     0.168120     0.558534    Uiso  ? Co
   Co36       1.0     0.673761     0.836876     0.440695    Uiso  ? Co
   Co37       1.0     0.163141     0.326260     0.440695    Uiso  ? Co
   Co38       1.0     0.163149     0.836880     0.440695    Uiso  ? Co
   Cr1        1.0     0.333357     0.666659     0.167082    Uiso  ? Cr
   Cr2        1.0     0.000007     0.000035     0.501112    Uiso  ? Cr
   Cr3        1.0     0.666626     0.333350     0.833217    Uiso  ? Cr
   Cr4        1.0     0.333348     0.666675     0.390374    Uiso  ? Cr
