
#======================================================================
# CRYSTAL DATA
#----------------------------------------------------------------------
data_VESTA_phase_1

_chemical_name_common                  'Sm8 Co28                              '
_cell_length_a                         5.030779
_cell_length_b                         5.030779
_cell_length_c                         24.362885
_cell_angle_alpha                      90.000000
_cell_angle_beta                       90.000000
_cell_angle_gamma                      120.106018
_cell_volume                           533.414635
_space_group_name_H-M_alt              'P 1'
_space_group_IT_number                 1

loop_
_space_group_symop_operation_xyz
   'x, y, z'

loop_
   _atom_site_label
   _atom_site_occupancy
   _atom_site_fract_x
   _atom_site_fract_y
   _atom_site_fract_z
   _atom_site_adp_type
   _atom_site_U_iso_or_equiv
   _atom_site_type_symbol
   Sm1        1.0     0.667935     0.334194     0.529532    Uiso  ? Sm
   Sm2        1.0     0.334194     0.667935     0.029532    Uiso  ? Sm
   Sm3        1.0     0.334194     0.667935     0.470468    Uiso  ? Sm
   Sm4        1.0     0.667935     0.334194     0.970468    Uiso  ? Sm
   Sm5        1.0     0.665213     0.333407     0.672453    Uiso  ? Sm
   Sm6        1.0     0.333407     0.665213     0.172453    Uiso  ? Sm
   Sm7        1.0     0.333407     0.665213     0.327547    Uiso  ? Sm
   Sm8        1.0     0.665213     0.333407     0.827547    Uiso  ? Sm
   Co1        1.0     0.014515     0.008465     0.667649    Uiso  ? Co
   Co2        1.0     0.008465     0.014515     0.167649    Uiso  ? Co
   Co3        1.0     0.008465     0.014515     0.332351    Uiso  ? Co
   Co4        1.0     0.014515     0.008465     0.832351    Uiso  ? Co
   Co5        1.0     0.657621     0.314632     0.331360    Uiso  ? Co
   Co6        1.0     0.314632     0.657621     0.831360    Uiso  ? Co
   Co7        1.0     0.314632     0.657621     0.668640    Uiso  ? Co
   Co8        1.0     0.657621     0.314632     0.168640    Uiso  ? Co
   Co9        1.0     0.834134     0.164857     0.250000    Uiso  ? Co
   Co10       1.0     0.164857     0.834134     0.750000    Uiso  ? Co
   Co11       1.0     0.164643     0.332069     0.750000    Uiso  ? Co
   Co12       1.0     0.332069     0.164643     0.250000    Uiso  ? Co
   Co13       1.0     0.665561     0.833448     0.590031    Uiso  ? Co
   Co14       1.0     0.168299     0.834387     0.587492    Uiso  ? Co
   Co15       1.0     0.168428     0.335425     0.587480    Uiso  ? Co
   Co16       1.0     0.833448     0.665561     0.090031    Uiso  ? Co
   Co17       1.0     0.834387     0.168299     0.087492    Uiso  ? Co
   Co18       1.0     0.335425     0.168428     0.087480    Uiso  ? Co
   Co19       1.0     0.335425     0.168428     0.412520    Uiso  ? Co
   Co20       1.0     0.833448     0.665561     0.409969    Uiso  ? Co
   Co21       1.0     0.834387     0.168299     0.412508    Uiso  ? Co
   Co22       1.0     0.168299     0.834387     0.912508    Uiso  ? Co
   Co23       1.0     0.665561     0.833448     0.909969    Uiso  ? Co
   Co24       1.0     0.168428     0.335425     0.912520    Uiso  ? Co
   Cr1        1.0     0.999553     0.999553     0.500000    Uiso  ? Cr
   Cr2        1.0     0.999553     0.999553     0.000000    Uiso  ? Cr
   Cr3        1.0     0.834829     0.667300     0.250000    Uiso  ? Cr
   Cr4        1.0     0.667300     0.834829     0.750000    Uiso  ? Cr
