
#======================================================================
# CRYSTAL DATA
#----------------------------------------------------------------------
data_VESTA_phase_1

_chemical_name_common                  'Sm12 Co42                             '
_cell_length_a                         5.066971
_cell_length_b                         4.948746
_cell_length_c                         36.538105
_cell_angle_alpha                      90.000000
_cell_angle_beta                       90.076866
_cell_angle_gamma                      119.231117
_cell_volume                           799.526134
_space_group_name_H-M_alt              'P 1'
_space_group_IT_number                 1

loop_
_space_group_symop_operation_xyz
   'x, y, z'

loop_
   _atom_site_label
   _atom_site_occupancy
   _atom_site_fract_x
   _atom_site_fract_y
   _atom_site_fract_z
   _atom_site_adp_type
   _atom_site_U_iso_or_equiv
   _atom_site_type_symbol
   Sm1        1.0    -0.001849    -0.000925     0.947857    Uiso  ? Sm
   Sm2        1.0     0.335182     0.667591     0.718810    Uiso  ? Sm
   Sm3        1.0     0.666031     0.333016     0.275038    Uiso  ? Sm
   Sm4        1.0     0.001181     0.000590     0.049650    Uiso  ? Sm
   Sm5        1.0     0.332153     0.666076     0.617017    Uiso  ? Sm
   Sm6        1.0     0.667302     0.333651     0.391629    Uiso  ? Sm
   Sm7        1.0    -0.001254    -0.000627     0.851802    Uiso  ? Sm
   Sm8        1.0     0.334588     0.667294     0.814865    Uiso  ? Sm
   Sm9        1.0     0.662997     0.331499     0.182058    Uiso  ? Sm
   Sm10       1.0    -0.001728    -0.000864     0.145741    Uiso  ? Sm
   Sm11       1.0     0.335061     0.667530     0.520926    Uiso  ? Sm
   Sm12       1.0     0.670336     0.335168     0.484608    Uiso  ? Sm
   Co1        1.0     0.666667     0.333333     0.833333    Uiso  ? Co
   Co2        1.0     0.330759     0.665380     0.164281    Uiso  ? Co
   Co3        1.0     0.002574     0.001287     0.502386    Uiso  ? Co
   Co4        1.0    -0.016700    -0.008350     0.722146    Uiso  ? Co
   Co5        1.0     0.350034     0.675017     0.944521    Uiso  ? Co
   Co6        1.0     0.654065     0.327032     0.052920    Uiso  ? Co
   Co7        1.0     0.054023     0.027011     0.275870    Uiso  ? Co
   Co8        1.0     0.279311     0.639655     0.390797    Uiso  ? Co
   Co9        1.0     0.679269     0.339634     0.613746    Uiso  ? Co
   Co10       1.0     0.646726     0.323363     0.944701    Uiso  ? Co
   Co11       1.0     0.686607     0.343304     0.721966    Uiso  ? Co
   Co12       1.0     0.278106     0.639053     0.276117    Uiso  ? Co
   Co13       1.0     0.348904     0.674452     0.052731    Uiso  ? Co
   Co14       1.0    -0.015570    -0.007785     0.613936    Uiso  ? Co
   Co15       1.0     0.055228     0.027614     0.390550    Uiso  ? Co
   Co16       1.0     0.499498    -0.000161    -0.001226    Uiso  ? Co
   Co17       1.0     0.499498     0.499659    -0.001226    Uiso  ? Co
   Co18       1.0    -0.000392     0.499804    -0.001434    Uiso  ? Co
   Co19       1.0     0.166667     0.333333     0.333333    Uiso  ? Co
   Co20       1.0     0.166667     0.833333     0.333333    Uiso  ? Co
   Co21       1.0     0.833835     0.666828     0.667892    Uiso  ? Co
   Co22       1.0     0.833835     0.167007     0.667892    Uiso  ? Co
   Co23       1.0     0.333725     0.166862     0.668101    Uiso  ? Co
   Co24       1.0     0.997891     0.498946     0.892571    Uiso  ? Co
   Co25       1.0     0.501016     0.002177     0.890763    Uiso  ? Co
   Co26       1.0     0.501016     0.498839     0.890763    Uiso  ? Co
   Co27       1.0     0.335442     0.167721     0.774095    Uiso  ? Co
   Co28       1.0     0.832317     0.664490     0.775904    Uiso  ? Co
   Co29       1.0     0.832317     0.167828     0.775904    Uiso  ? Co
   Co30       1.0     0.667883     0.833941     0.225313    Uiso  ? Co
   Co31       1.0     0.168674     0.337435     0.221247    Uiso  ? Co
   Co32       1.0     0.168674     0.831239     0.221247    Uiso  ? Co
   Co33       1.0     0.002255     0.501127     0.105053    Uiso  ? Co
   Co34       1.0     0.496673     0.996941     0.106650    Uiso  ? Co
   Co35       1.0     0.496673     0.499732     0.106650    Uiso  ? Co
   Co36       1.0     0.331079     0.165539     0.561614    Uiso  ? Co
   Co37       1.0     0.836661     0.669726     0.560017    Uiso  ? Co
   Co38       1.0     0.836661     0.166935     0.560017    Uiso  ? Co
   Co39       1.0     0.665450     0.832725     0.441353    Uiso  ? Co
   Co40       1.0     0.164659     0.329232     0.445420    Uiso  ? Co
   Co41       1.0     0.164659     0.835427     0.445420    Uiso  ? Co
   Sc1        1.0     0.666667     0.833333     0.333333    Uiso  ? Sc
