
#======================================================================
# CRYSTAL DATA
#----------------------------------------------------------------------
data_VESTA_phase_1

_chemical_name_common                  'Sm12 Co42                             '
_cell_length_a                         5.036514
_cell_length_b                         5.036514
_cell_length_c                         36.347492
_cell_angle_alpha                      90.000000
_cell_angle_beta                       90.000000
_cell_angle_gamma                      120.000000
_cell_volume                           798.482171
_space_group_name_H-M_alt              'P 1'
_space_group_IT_number                 1

loop_
_space_group_symop_operation_xyz
   'x, y, z'

loop_
   _atom_site_label
   _atom_site_occupancy
   _atom_site_fract_x
   _atom_site_fract_y
   _atom_site_fract_z
   _atom_site_adp_type
   _atom_site_U_iso_or_equiv
   _atom_site_type_symbol
   Sm1        1.0     0.000000     0.000000     0.948493    Uiso  ? Sm
   Sm2        1.0     0.333333     0.666667     0.718806    Uiso  ? Sm
   Sm3        1.0     0.666667     0.333333     0.279775    Uiso  ? Sm
   Sm4        1.0     0.000000     0.000000     0.050632    Uiso  ? Sm
   Sm5        1.0     0.333333     0.666667     0.616724    Uiso  ? Sm
   Sm6        1.0     0.666667     0.333333     0.380722    Uiso  ? Sm
   Sm7        1.0     0.000000     0.000000     0.852108    Uiso  ? Sm
   Sm8        1.0     0.333333     0.666667     0.815206    Uiso  ? Sm
   Sm9        1.0     0.666667     0.333333     0.183843    Uiso  ? Sm
   Sm10       1.0     0.000000     0.000000     0.147139    Uiso  ? Sm
   Sm11       1.0     0.333333     0.666667     0.520323    Uiso  ? Sm
   Sm12       1.0     0.666667     0.333333     0.481774    Uiso  ? Sm
   Co1        1.0     0.666667     0.333333     0.833676    Uiso  ? Co
   Co2        1.0     0.333333     0.666667     0.165026    Uiso  ? Co
   Co3        1.0     0.000000     0.000000     0.502146    Uiso  ? Co
   Co4        1.0     0.000000     0.000000     0.722145    Uiso  ? Co
   Co5        1.0     0.333333     0.666667     0.945168    Uiso  ? Co
   Co6        1.0     0.666667     0.333333     0.053532    Uiso  ? Co
   Co7        1.0     0.000000     0.000000     0.275509    Uiso  ? Co
   Co8        1.0     0.666667     0.333333     0.613688    Uiso  ? Co
   Co9        1.0     0.666667     0.333333     0.945484    Uiso  ? Co
   Co10       1.0     0.666667     0.333333     0.721833    Uiso  ? Co
   Co11       1.0     0.333333     0.666667     0.278758    Uiso  ? Co
   Co12       1.0     0.333333     0.666667     0.053799    Uiso  ? Co
   Co13       1.0     0.000000     0.000000     0.613557    Uiso  ? Co
   Co14       1.0     0.000000     0.000000     0.388962    Uiso  ? Co
   Co15       1.0     0.499809    -0.000382    -0.000539    Uiso  ? Co
   Co16       1.0     0.499809     0.500191    -0.000539    Uiso  ? Co
   Co17       1.0     0.000382     0.500191    -0.000539    Uiso  ? Co
   Co18       1.0     0.160680     0.321360     0.330449    Uiso  ? Co
   Co19       1.0     0.160680     0.839320     0.330449    Uiso  ? Co
   Co20       1.0     0.678640     0.839320     0.330449    Uiso  ? Co
   Co21       1.0     0.833461     0.666921     0.667819    Uiso  ? Co
   Co22       1.0     0.833461     0.166539     0.667819    Uiso  ? Co
   Co23       1.0     0.333079     0.166539     0.667819    Uiso  ? Co
   Co24       1.0     0.997747     0.498874     0.891831    Uiso  ? Co
   Co25       1.0     0.501126     0.002253     0.891831    Uiso  ? Co
   Co26       1.0     0.501126     0.498874     0.891831    Uiso  ? Co
   Co27       1.0     0.335706     0.167853     0.775481    Uiso  ? Co
   Co28       1.0     0.832147     0.664294     0.775481    Uiso  ? Co
   Co29       1.0     0.832147     0.167853     0.775481    Uiso  ? Co
   Co30       1.0     0.660684     0.830342     0.223533    Uiso  ? Co
   Co31       1.0     0.169658     0.339316     0.223533    Uiso  ? Co
   Co32       1.0     0.169658     0.830342     0.223533    Uiso  ? Co
   Co33       1.0     0.001040     0.500520     0.107162    Uiso  ? Co
   Co34       1.0     0.499480     0.998960     0.107162    Uiso  ? Co
   Co35       1.0     0.499480     0.500520     0.107162    Uiso  ? Co
   Co36       1.0     0.332670     0.166335     0.560102    Uiso  ? Co
   Co37       1.0     0.833665     0.667330     0.560102    Uiso  ? Co
   Co38       1.0     0.833665     0.166335     0.560102    Uiso  ? Co
   Co39       1.0     0.677297     0.838649     0.445016    Uiso  ? Co
   Co40       1.0     0.161351     0.322703     0.445016    Uiso  ? Co
   Co41       1.0     0.161351     0.838649     0.445016    Uiso  ? Co
   Sc1        1.0     0.333333     0.666667     0.388610    Uiso  ? Sc
