
#======================================================================
# CRYSTAL DATA
#----------------------------------------------------------------------
data_VESTA_phase_1

_chemical_name_common                  'Sm12 Co42                             '
_cell_length_a                         5.018384
_cell_length_b                         5.015675
_cell_length_c                         36.391552
_cell_angle_alpha                      90.000000
_cell_angle_beta                       90.008530
_cell_angle_gamma                      119.982140
_cell_volume                           793.418963
_space_group_name_H-M_alt              'P 1'
_space_group_IT_number                 1

loop_
_space_group_symop_operation_xyz
   'x, y, z'

loop_
   _atom_site_label
   _atom_site_occupancy
   _atom_site_fract_x
   _atom_site_fract_y
   _atom_site_fract_z
   _atom_site_adp_type
   _atom_site_U_iso_or_equiv
   _atom_site_type_symbol
   Sm1        1.0     0.000058     0.000029     0.948684    Uiso  ? Sm
   Sm2        1.0     0.332994     0.666497     0.718644    Uiso  ? Sm
   Sm3        1.0     0.666830     0.333415     0.280981    Uiso  ? Sm
   Sm4        1.0     0.999879     0.999939     0.051041    Uiso  ? Sm
   Sm5        1.0     0.332067     0.666034     0.616399    Uiso  ? Sm
   Sm6        1.0     0.667316     0.333658     0.383693    Uiso  ? Sm
   Sm7        1.0    -0.000144    -0.000072     0.852162    Uiso  ? Sm
   Sm8        1.0     0.333218     0.666609     0.815168    Uiso  ? Sm
   Sm9        1.0     0.666755     0.333377     0.184537    Uiso  ? Sm
   Sm10       1.0     0.000740     0.000370     0.147600    Uiso  ? Sm
   Sm11       1.0     0.336799     0.668399     0.519838    Uiso  ? Sm
   Sm12       1.0     0.673521     0.336761     0.483404    Uiso  ? Sm
   Co1        1.0     0.666477     0.333238     0.833629    Uiso  ? Co
   Co2        1.0     0.333412     0.666706     0.166052    Uiso  ? Co
   Co3        1.0     0.005109     0.002555     0.500129    Uiso  ? Co
   Co4        1.0     0.001893     0.000946     0.721650    Uiso  ? Co
   Co5        1.0     0.332139     0.666070     0.945525    Uiso  ? Co
   Co6        1.0     0.667772     0.333886     0.054219    Uiso  ? Co
   Co7        1.0    -0.019445    -0.009723     0.278193    Uiso  ? Co
   Co8        1.0     0.300296     0.650148     0.386638    Uiso  ? Co
   Co9        1.0     0.661739     0.330870     0.612686    Uiso  ? Co
   Co10       1.0     0.667906     0.333953     0.945587    Uiso  ? Co
   Co11       1.0     0.664246     0.332123     0.721832    Uiso  ? Co
   Co12       1.0     0.353097     0.676549     0.278102    Uiso  ? Co
   Co13       1.0     0.332169     0.666084     0.054075    Uiso  ? Co
   Co14       1.0     0.002419     0.001210     0.613595    Uiso  ? Co
   Co15       1.0     0.035373     0.017687     0.386124    Uiso  ? Co
   Co16       1.0     0.499939     0.000084    -0.000174    Uiso  ? Co
   Co17       1.0     0.499939     0.499855    -0.000174    Uiso  ? Co
   Co18       1.0    -0.000087     0.499956    -0.000164    Uiso  ? Co
   Co19       1.0     0.166944     0.334107     0.331097    Uiso  ? Co
   Co20       1.0     0.166944     0.832837     0.331097    Uiso  ? Co
   Co21       1.0     0.667394     0.833697     0.334655    Uiso  ? Co
   Co22       1.0     0.831994     0.665527     0.667452    Uiso  ? Co
   Co23       1.0     0.831994     0.166467     0.667452    Uiso  ? Co
   Co24       1.0     0.333259     0.166630     0.667526    Uiso  ? Co
   Co25       1.0     0.997952     0.498976     0.891868    Uiso  ? Co
   Co26       1.0     0.500891     0.001986     0.891967    Uiso  ? Co
   Co27       1.0     0.500891     0.498905     0.891967    Uiso  ? Co
   Co28       1.0     0.335042     0.167521     0.775459    Uiso  ? Co
   Co29       1.0     0.832602     0.665219     0.775318    Uiso  ? Co
   Co30       1.0     0.832602     0.167383     0.775318    Uiso  ? Co
   Co31       1.0     0.664116     0.832058     0.223677    Uiso  ? Co
   Co32       1.0     0.167004     0.334921     0.224830    Uiso  ? Co
   Co33       1.0     0.167004     0.832083     0.224830    Uiso  ? Co
   Co34       1.0     0.001707     0.500853     0.107791    Uiso  ? Co
   Co35       1.0     0.499329     0.997747     0.107723    Uiso  ? Co
   Co36       1.0     0.499329     0.501582     0.107723    Uiso  ? Co
   Co37       1.0     0.326370     0.163185     0.559349    Uiso  ? Co
   Co38       1.0     0.836154     0.669730     0.559766    Uiso  ? Co
   Co39       1.0     0.836154     0.166424     0.559766    Uiso  ? Co
   Co40       1.0     0.163860     0.327985     0.441852    Uiso  ? Co
   Co41       1.0     0.163860     0.835876     0.441852    Uiso  ? Co
   Mn1        1.0     0.662182     0.831091     0.439992    Uiso  ? Mn
