
#======================================================================
# CRYSTAL DATA
#----------------------------------------------------------------------
data_VESTA_phase_1

_chemical_name_common                  'Sm12 Co42                             '
_cell_length_a                         5.038079
_cell_length_b                         4.971325
_cell_length_c                         36.403015
_cell_angle_alpha                      90.000000
_cell_angle_beta                       90.062119
_cell_angle_gamma                      119.562660
_cell_volume                           793.052317
_space_group_name_H-M_alt              'P 1'
_space_group_IT_number                 1

loop_
_space_group_symop_operation_xyz
   'x, y, z'

loop_
   _atom_site_label
   _atom_site_occupancy
   _atom_site_fract_x
   _atom_site_fract_y
   _atom_site_fract_z
   _atom_site_adp_type
   _atom_site_U_iso_or_equiv
   _atom_site_type_symbol
   Sm1        1.0    -0.000730    -0.000365     0.948373    Uiso  ? Sm
   Sm2        1.0     0.334064     0.667032     0.718294    Uiso  ? Sm
   Sm3        1.0     0.667494     0.333747     0.280278    Uiso  ? Sm
   Sm4        1.0     0.000724     0.000362     0.050760    Uiso  ? Sm
   Sm5        1.0     0.332609     0.666305     0.615907    Uiso  ? Sm
   Sm6        1.0     0.665839     0.332920     0.386389    Uiso  ? Sm
   Sm7        1.0    -0.000682    -0.000341     0.851861    Uiso  ? Sm
   Sm8        1.0     0.334016     0.667008     0.814806    Uiso  ? Sm
   Sm9        1.0     0.664313     0.332157     0.184255    Uiso  ? Sm
   Sm10       1.0    -0.001732    -0.000866     0.147271    Uiso  ? Sm
   Sm11       1.0     0.335065     0.667533     0.519395    Uiso  ? Sm
   Sm12       1.0     0.669020     0.334510     0.482411    Uiso  ? Sm
   Co1        1.0     0.666667     0.333333     0.833333    Uiso  ? Co
   Co2        1.0     0.330872     0.665436     0.165693    Uiso  ? Co
   Co3        1.0     0.002461     0.001231     0.500974    Uiso  ? Co
   Co4        1.0    -0.005277    -0.002638     0.721504    Uiso  ? Co
   Co5        1.0     0.338610     0.669305     0.945163    Uiso  ? Co
   Co6        1.0     0.662267     0.331133     0.053814    Uiso  ? Co
   Co7        1.0     0.035317     0.017658     0.277699    Uiso  ? Co
   Co8        1.0     0.298017     0.649008     0.388967    Uiso  ? Co
   Co9        1.0     0.671066     0.335533     0.612853    Uiso  ? Co
   Co10       1.0     0.659950     0.329975     0.945278    Uiso  ? Co
   Co11       1.0     0.673383     0.336691     0.721389    Uiso  ? Co
   Co12       1.0     0.300136     0.650068     0.277947    Uiso  ? Co
   Co13       1.0     0.338856     0.669428     0.053841    Uiso  ? Co
   Co14       1.0    -0.005523    -0.002762     0.612826    Uiso  ? Co
   Co15       1.0     0.033197     0.016598     0.388720    Uiso  ? Co
   Co16       1.0     0.500155     0.000008    -0.000467    Uiso  ? Co
   Co17       1.0     0.500155     0.500147    -0.000467    Uiso  ? Co
   Co18       1.0     0.000177     0.500089    -0.000508    Uiso  ? Co
   Co19       1.0     0.166667     0.333333     0.333333    Uiso  ? Co
   Co20       1.0     0.166667     0.833333     0.333333    Uiso  ? Co
   Co21       1.0     0.833178     0.666659     0.667133    Uiso  ? Co
   Co22       1.0     0.833178     0.166520     0.667133    Uiso  ? Co
   Co23       1.0     0.333156     0.166578     0.667175    Uiso  ? Co
   Co24       1.0     0.997804     0.498902     0.892136    Uiso  ? Co
   Co25       1.0     0.501033     0.002123     0.891447    Uiso  ? Co
   Co26       1.0     0.501033     0.498910     0.891447    Uiso  ? Co
   Co27       1.0     0.335529     0.167765     0.774530    Uiso  ? Co
   Co28       1.0     0.832300     0.664544     0.775220    Uiso  ? Co
   Co29       1.0     0.832300     0.167756     0.775220    Uiso  ? Co
   Co30       1.0     0.667744     0.833872     0.226148    Uiso  ? Co
   Co31       1.0     0.169739     0.337302     0.223157    Uiso  ? Co
   Co32       1.0     0.169739     0.832437     0.223157    Uiso  ? Co
   Co33       1.0     0.002212     0.501106     0.107067    Uiso  ? Co
   Co34       1.0     0.498214     0.998176     0.107636    Uiso  ? Co
   Co35       1.0     0.498214     0.500038     0.107636    Uiso  ? Co
   Co36       1.0     0.331121     0.165561     0.559600    Uiso  ? Co
   Co37       1.0     0.835119     0.668491     0.559031    Uiso  ? Co
   Co38       1.0     0.835119     0.166628     0.559031    Uiso  ? Co
   Co39       1.0     0.665590     0.832795     0.440518    Uiso  ? Co
   Co40       1.0     0.163594     0.329364     0.443510    Uiso  ? Co
   Co41       1.0     0.163594     0.834230     0.443510    Uiso  ? Co
   Mn1        1.0     0.666667     0.833333     0.333333    Uiso  ? Mn
