
#======================================================================
# CRYSTAL DATA
#----------------------------------------------------------------------
data_VESTA_phase_1

_chemical_name_common                  'Sm12 Co42                             '
_cell_length_a                         5.018404
_cell_length_b                         5.018506
_cell_length_c                         36.301239
_cell_angle_alpha                      89.999298
_cell_angle_beta                       89.999893
_cell_angle_gamma                      119.998962
_cell_volume                           791.765643
_space_group_name_H-M_alt              'P 1'
_space_group_IT_number                 1

loop_
_space_group_symop_operation_xyz
   'x, y, z'

loop_
   _atom_site_label
   _atom_site_occupancy
   _atom_site_fract_x
   _atom_site_fract_y
   _atom_site_fract_z
   _atom_site_adp_type
   _atom_site_U_iso_or_equiv
   _atom_site_type_symbol
   Sm1        1.0     1.000003     0.000008     0.948729    Uiso  ? Sm
   Sm2        1.0     0.333328     0.666657     0.717910    Uiso  ? Sm
   Sm3        1.0     0.666661     0.333341     0.282302    Uiso  ? Sm
   Sm4        1.0     1.000003    -0.000000     0.051469    Uiso  ? Sm
   Sm5        1.0     0.333342     0.666677     0.615312    Uiso  ? Sm
   Sm6        1.0     0.666671     0.333304     0.385060    Uiso  ? Sm
   Sm7        1.0     0.999991     0.000004     0.851834    Uiso  ? Sm
   Sm8        1.0     0.333334     0.666677     0.814722    Uiso  ? Sm
   Sm9        1.0     0.666666     0.333330     0.184928    Uiso  ? Sm
   Sm10       1.0     0.000007     0.999999     0.148155    Uiso  ? Sm
   Sm11       1.0     0.333331     0.666671     0.518552    Uiso  ? Sm
   Sm12       1.0     0.666660     0.333335     0.481610    Uiso  ? Sm
   Co1        1.0     0.666660     0.333337     0.833278    Uiso  ? Co
   Co2        1.0     0.333337     0.666669     0.167111    Uiso  ? Co
   Co3        1.0     0.999997     1.000002     0.500135    Uiso  ? Co
   Co4        1.0     1.000045     1.000097     0.721228    Uiso  ? Co
   Co5        1.0     0.333361     0.666688     0.945534    Uiso  ? Co
   Co6        1.0     0.666660     0.333333     0.054723    Uiso  ? Co
   Co7        1.0     0.000003     0.999999     0.278290    Uiso  ? Co
   Co8        1.0     0.333270     0.666744     0.387891    Uiso  ? Co
   Co9        1.0     0.666598     0.333286     0.612105    Uiso  ? Co
   Co10       1.0     0.666650     0.333332     0.945534    Uiso  ? Co
   Co11       1.0     0.666615     0.333228     0.720988    Uiso  ? Co
   Co12       1.0     0.333348     0.666662     0.054264    Uiso  ? Co
   Co13       1.0     1.000079     1.000065     0.612232    Uiso  ? Co
   Co14       1.0     1.000045     0.999894     0.388000    Uiso  ? Co
   Co15       1.0     0.500179     0.000361     0.000056    Uiso  ? Co
   Co16       1.0     0.500180     0.499820     0.000056    Uiso  ? Co
   Co17       1.0     0.999634     0.499820     0.000055    Uiso  ? Co
   Co18       1.0     0.165428     0.330853     0.333950    Uiso  ? Co
   Co19       1.0     0.165427     0.834555     0.333940    Uiso  ? Co
   Co20       1.0     0.669127     0.834554     0.333949    Uiso  ? Co
   Co21       1.0     0.833361     0.666717     0.666622    Uiso  ? Co
   Co22       1.0     0.833363     0.166632     0.666618    Uiso  ? Co
   Co23       1.0     0.333272     0.166631     0.666621    Uiso  ? Co
   Co24       1.0     0.997880     0.498947     0.891782    Uiso  ? Co
   Co25       1.0     0.501059     0.002139     0.891780    Uiso  ? Co
   Co26       1.0     0.501066     0.498934     0.891780    Uiso  ? Co
   Co27       1.0     0.335644     0.167837     0.774814    Uiso  ? Co
   Co28       1.0     0.832183     0.664363     0.774810    Uiso  ? Co
   Co29       1.0     0.832189     0.167841     0.774814    Uiso  ? Co
   Co30       1.0     0.667920     0.833958     0.224086    Uiso  ? Co
   Co31       1.0     0.166034     0.332080     0.224087    Uiso  ? Co
   Co32       1.0     0.166027     0.833964     0.224084    Uiso  ? Co
   Co33       1.0     0.003256     0.501626     0.108224    Uiso  ? Co
   Co34       1.0     0.498388     0.996757     0.108225    Uiso  ? Co
   Co35       1.0     0.498385     0.501631     0.108226    Uiso  ? Co
   Co36       1.0     0.331319     0.165657     0.558472    Uiso  ? Co
   Co37       1.0     0.834337     0.668675     0.558476    Uiso  ? Co
   Co38       1.0     0.834342     0.165658     0.558474    Uiso  ? Co
   Co39       1.0     0.668938     0.834463     0.441845    Uiso  ? Co
   Co40       1.0     0.165530     0.331056     0.441843    Uiso  ? Co
   Co41       1.0     0.165542     0.834453     0.441854    Uiso  ? Co
   Mn1        1.0     0.333329     0.666681     0.278562    Uiso  ? Mn
