
#======================================================================
# CRYSTAL DATA
#----------------------------------------------------------------------
data_VESTA_phase_1

_chemical_name_common                  'Sm12 Co42                             '
_cell_length_a                         5.016018
_cell_length_b                         5.015975
_cell_length_c                         36.365772
_cell_angle_alpha                      89.999893
_cell_angle_beta                       90.000015
_cell_angle_gamma                      120.000336
_cell_volume                           792.385392
_space_group_name_H-M_alt              'P 1'
_space_group_IT_number                 1

loop_
_space_group_symop_operation_xyz
   'x, y, z'

loop_
   _atom_site_label
   _atom_site_occupancy
   _atom_site_fract_x
   _atom_site_fract_y
   _atom_site_fract_z
   _atom_site_adp_type
   _atom_site_U_iso_or_equiv
   _atom_site_type_symbol
   Sm1        1.0     0.000002     0.000003     0.948698    Uiso  ? Sm
   Sm2        1.0     0.333325     0.666662     0.717977    Uiso  ? Sm
   Sm3        1.0     0.666669     0.333334     0.281494    Uiso  ? Sm
   Sm4        1.0     0.000001     0.000000     0.051304    Uiso  ? Sm
   Sm5        1.0     0.333331     0.666669     0.615482    Uiso  ? Sm
   Sm6        1.0     0.666668     0.333336     0.384062    Uiso  ? Sm
   Sm7        1.0     0.000001     0.000001     0.851921    Uiso  ? Sm
   Sm8        1.0     0.333334     0.666667     0.814755    Uiso  ? Sm
   Sm9        1.0     0.666669     0.333338     0.185120    Uiso  ? Sm
   Sm10       1.0     0.000001     0.000001     0.148003    Uiso  ? Sm
   Sm11       1.0     0.333335     0.666670     0.519086    Uiso  ? Sm
   Sm12       1.0     0.666668     0.333336     0.481820    Uiso  ? Sm
   Co1        1.0     0.666667     0.333334     0.833341    Uiso  ? Co
   Co2        1.0     0.333336     0.666670     0.166582    Uiso  ? Co
   Co3        1.0     0.000002     0.000003     0.499519    Uiso  ? Co
   Co4        1.0    -0.000021    -0.000010     0.721128    Uiso  ? Co
   Co5        1.0     0.333328     0.666656     0.945507    Uiso  ? Co
   Co6        1.0     0.666661     0.333325     0.054458    Uiso  ? Co
   Co7        1.0    -0.000003    -0.000003     0.278491    Uiso  ? Co
   Co8        1.0     0.666650     0.333329     0.612197    Uiso  ? Co
   Co9        1.0     0.666660     0.333318     0.945665    Uiso  ? Co
   Co10       1.0     0.666664     0.333330     0.721063    Uiso  ? Co
   Co11       1.0     0.333342     0.666671     0.278959    Uiso  ? Co
   Co12       1.0     0.333341     0.666677     0.054373    Uiso  ? Co
   Co13       1.0     0.000010     0.000009     0.612520    Uiso  ? Co
   Co14       1.0     0.000003     0.000002     0.388106    Uiso  ? Co
   Co15       1.0     0.499963    -0.000076    -0.000005    Uiso  ? Co
   Co16       1.0     0.499962     0.500040    -0.000006    Uiso  ? Co
   Co17       1.0     0.000079     0.500040    -0.000006    Uiso  ? Co
   Co18       1.0     0.165316     0.330626     0.332564    Uiso  ? Co
   Co19       1.0     0.165328     0.834673     0.332564    Uiso  ? Co
   Co20       1.0     0.669375     0.834677     0.332564    Uiso  ? Co
   Co21       1.0     0.833212     0.666428     0.666721    Uiso  ? Co
   Co22       1.0     0.833212     0.166786     0.666720    Uiso  ? Co
   Co23       1.0     0.333567     0.166784     0.666722    Uiso  ? Co
   Co24       1.0     0.997781     0.498894     0.891896    Uiso  ? Co
   Co25       1.0     0.501110     0.002221     0.891895    Uiso  ? Co
   Co26       1.0     0.501111     0.498893     0.891896    Uiso  ? Co
   Co27       1.0     0.335468     0.167734     0.774781    Uiso  ? Co
   Co28       1.0     0.832264     0.664528     0.774781    Uiso  ? Co
   Co29       1.0     0.832262     0.167737     0.774781    Uiso  ? Co
   Co30       1.0     0.664518     0.832263     0.224943    Uiso  ? Co
   Co31       1.0     0.167740     0.335481     0.224944    Uiso  ? Co
   Co32       1.0     0.167745     0.832262     0.224943    Uiso  ? Co
   Co33       1.0     0.002038     0.501016     0.108068    Uiso  ? Co
   Co34       1.0     0.498981     0.997960     0.108070    Uiso  ? Co
   Co35       1.0     0.498981     0.501016     0.108069    Uiso  ? Co
   Co36       1.0     0.330696     0.165350     0.558751    Uiso  ? Co
   Co37       1.0     0.834654     0.669307     0.558752    Uiso  ? Co
   Co38       1.0     0.834653     0.165352     0.558750    Uiso  ? Co
   Co39       1.0     0.668403     0.834204     0.442525    Uiso  ? Co
   Co40       1.0     0.165804     0.331606     0.442525    Uiso  ? Co
   Co41       1.0     0.165801     0.834204     0.442525    Uiso  ? Co
   Mn1        1.0     0.333330     0.666666     0.387635    Uiso  ? Mn
