
#======================================================================
# CRYSTAL DATA
#----------------------------------------------------------------------
data_VESTA_phase_1

_chemical_name_common                  'Sm8 Co28                              '
_cell_length_a                         5.019373
_cell_length_b                         5.019373
_cell_length_c                         24.260618
_cell_angle_alpha                      90.000000
_cell_angle_beta                       90.000000
_cell_angle_gamma                      120.000000
_cell_volume                           529.335993
_space_group_name_H-M_alt              'P 1'
_space_group_IT_number                 1

loop_
_space_group_symop_operation_xyz
   'x, y, z'

loop_
   _atom_site_label
   _atom_site_occupancy
   _atom_site_fract_x
   _atom_site_fract_y
   _atom_site_fract_z
   _atom_site_adp_type
   _atom_site_U_iso_or_equiv
   _atom_site_type_symbol
   Sm1        1.0     0.666667     0.333333     0.528604    Uiso  ? Sm
   Sm2        1.0     0.333333     0.666667     0.027456    Uiso  ? Sm
   Sm3        1.0     0.333333     0.666667     0.472715    Uiso  ? Sm
   Sm4        1.0     0.666667     0.333333     0.971980    Uiso  ? Sm
   Sm5        1.0     0.666667     0.333333     0.673374    Uiso  ? Sm
   Sm6        1.0     0.333333     0.666667     0.172171    Uiso  ? Sm
   Sm7        1.0     0.333333     0.666667     0.326087    Uiso  ? Sm
   Sm8        1.0     0.666667     0.333333     0.826954    Uiso  ? Sm
   Co1        1.0     0.000000     -0.000000     0.499447    Uiso  ? Co
   Co2        1.0     0.000000     -0.000000    -0.000257    Uiso  ? Co
   Co3        1.0     0.000000     -0.000000     0.668674    Uiso  ? Co
   Co4        1.0     0.000000     -0.000000     0.167561    Uiso  ? Co
   Co5        1.0     0.000000     -0.000000     0.332333    Uiso  ? Co
   Co6        1.0     0.000000     -0.000000     0.831630    Uiso  ? Co
   Co7        1.0     0.333333     0.666667     0.831880    Uiso  ? Co
   Co8        1.0     0.333333     0.666667     0.668463    Uiso  ? Co
   Co9        1.0     0.666667     0.333333     0.168454    Uiso  ? Co
   Co10       1.0     0.667442     0.833721     0.750148    Uiso  ? Co
   Co11       1.0     0.835139     0.670278     0.248854    Uiso  ? Co
   Co12       1.0     0.835139     0.164861     0.248854    Uiso  ? Co
   Co13       1.0     0.166279     0.833721     0.750148    Uiso  ? Co
   Co14       1.0     0.166279     0.332558     0.750148    Uiso  ? Co
   Co15       1.0     0.329722     0.164861     0.248854    Uiso  ? Co
   Co16       1.0     0.668960     0.834480     0.588158    Uiso  ? Co
   Co17       1.0     0.165520     0.834480     0.588158    Uiso  ? Co
   Co18       1.0     0.165520     0.331040     0.588158    Uiso  ? Co
   Co19       1.0     0.834217     0.668433     0.087288    Uiso  ? Co
   Co20       1.0     0.834217     0.165783     0.087288    Uiso  ? Co
   Co21       1.0     0.331567     0.165783     0.087288    Uiso  ? Co
   Co22       1.0     0.331607     0.165803     0.413781    Uiso  ? Co
   Co23       1.0     0.834197     0.668393     0.413781    Uiso  ? Co
   Co24       1.0     0.834197     0.165803     0.413781    Uiso  ? Co
   Co25       1.0     0.165560     0.834440     0.912137    Uiso  ? Co
   Co26       1.0     0.668879     0.834440     0.912137    Uiso  ? Co
   Co27       1.0     0.165560     0.331121     0.912137    Uiso  ? Co
   Mn1        1.0     0.666667     0.333333     0.331376    Uiso  ? Mn
