
#======================================================================
# CRYSTAL DATA
#----------------------------------------------------------------------
data_VESTA_phase_1

_chemical_name_common                  'Sm8 Co28                              '
_cell_length_a                         5.022032
_cell_length_b                         5.022032
_cell_length_c                         24.213329
_cell_angle_alpha                      90.000000
_cell_angle_beta                       90.000000
_cell_angle_gamma                      120.000000
_cell_volume                           528.864060
_space_group_name_H-M_alt              'P 1'
_space_group_IT_number                 1

loop_
_space_group_symop_operation_xyz
   'x, y, z'

loop_
   _atom_site_label
   _atom_site_occupancy
   _atom_site_fract_x
   _atom_site_fract_y
   _atom_site_fract_z
   _atom_site_adp_type
   _atom_site_U_iso_or_equiv
   _atom_site_type_symbol
   Sm1        1.0     0.666667     0.333333     0.527955    Uiso  ? Sm
   Sm2        1.0     0.333333     0.666667     0.027662    Uiso  ? Sm
   Sm3        1.0     0.333333     0.666667     0.472631    Uiso  ? Sm
   Sm4        1.0     0.666667     0.333333     0.972033    Uiso  ? Sm
   Sm5        1.0     0.666667     0.333333     0.673006    Uiso  ? Sm
   Sm6        1.0     0.333333     0.666667     0.172491    Uiso  ? Sm
   Sm7        1.0     0.333333     0.666667     0.326377    Uiso  ? Sm
   Sm8        1.0     0.666667     0.333333     0.826843    Uiso  ? Sm
   Co1        1.0     0.000000     -0.000000     0.499194    Uiso  ? Co
   Co2        1.0     0.000000     -0.000000     0.000015    Uiso  ? Co
   Co3        1.0     0.000000     -0.000000     0.668598    Uiso  ? Co
   Co4        1.0     0.000000     -0.000000     0.168089    Uiso  ? Co
   Co5        1.0     0.000000     -0.000000     0.831727    Uiso  ? Co
   Co6        1.0     0.666667     0.333333     0.332327    Uiso  ? Co
   Co7        1.0     0.333333     0.666667     0.831748    Uiso  ? Co
   Co8        1.0     0.333333     0.666667     0.668006    Uiso  ? Co
   Co9        1.0     0.666667     0.333333     0.168047    Uiso  ? Co
   Co10       1.0     0.667340     0.833670     0.749989    Uiso  ? Co
   Co11       1.0     0.832482     0.664963     0.249080    Uiso  ? Co
   Co12       1.0     0.832482     0.167518     0.249080    Uiso  ? Co
   Co13       1.0     0.166330     0.833670     0.749989    Uiso  ? Co
   Co14       1.0     0.166330     0.332660     0.749989    Uiso  ? Co
   Co15       1.0     0.335037     0.167518     0.249080    Uiso  ? Co
   Co16       1.0     0.669755     0.834877     0.587796    Uiso  ? Co
   Co17       1.0     0.165123     0.834877     0.587796    Uiso  ? Co
   Co18       1.0     0.165123     0.330245     0.587796    Uiso  ? Co
   Co19       1.0     0.834235     0.668470     0.087335    Uiso  ? Co
   Co20       1.0     0.834235     0.165765     0.087335    Uiso  ? Co
   Co21       1.0     0.331530     0.165765     0.087335    Uiso  ? Co
   Co22       1.0     0.335072     0.167536     0.413847    Uiso  ? Co
   Co23       1.0     0.832464     0.664928     0.413847    Uiso  ? Co
   Co24       1.0     0.832464     0.167536     0.413847    Uiso  ? Co
   Co25       1.0     0.165601     0.834399     0.912225    Uiso  ? Co
   Co26       1.0     0.668798     0.834399     0.912225    Uiso  ? Co
   Co27       1.0     0.165601     0.331202     0.912225    Uiso  ? Co
   Mn1        1.0     0.000000     -0.000000     0.332432    Uiso  ? Mn
