
#======================================================================
# CRYSTAL DATA
#----------------------------------------------------------------------
data_VESTA_phase_1

_chemical_name_common                  'Sm8 Co28                              '
_cell_length_a                         4.952814
_cell_length_b                         5.049829
_cell_length_c                         24.325340
_cell_angle_alpha                      90.000000
_cell_angle_beta                       90.000000
_cell_angle_gamma                      119.366493
_cell_volume                           530.219122
_space_group_name_H-M_alt              'P 1'
_space_group_IT_number                 1

loop_
_space_group_symop_operation_xyz
   'x, y, z'

loop_
   _atom_site_label
   _atom_site_occupancy
   _atom_site_fract_x
   _atom_site_fract_y
   _atom_site_fract_z
   _atom_site_adp_type
   _atom_site_U_iso_or_equiv
   _atom_site_type_symbol
   Sm1        1.0     0.667388     0.334777     0.528835    Uiso  ? Sm
   Sm2        1.0     0.334569     0.669138     0.026642    Uiso  ? Sm
   Sm3        1.0     0.334569     0.669138     0.473358    Uiso  ? Sm
   Sm4        1.0     0.667388     0.334777     0.971165    Uiso  ? Sm
   Sm5        1.0     0.665927     0.331854     0.673451    Uiso  ? Sm
   Sm6        1.0     0.333415     0.666830     0.170348    Uiso  ? Sm
   Sm7        1.0     0.333415     0.666830     0.329652    Uiso  ? Sm
   Sm8        1.0     0.665927     0.331854     0.826549    Uiso  ? Sm
   Co1        1.0     0.000573     0.001147     0.500796    Uiso  ? Co
   Co2        1.0     0.000573     0.001147    -0.000796    Uiso  ? Co
   Co3        1.0    -0.008199    -0.016398     0.668588    Uiso  ? Co
   Co4        1.0     0.017259     0.034517     0.166673    Uiso  ? Co
   Co5        1.0     0.017259     0.034517     0.333327    Uiso  ? Co
   Co6        1.0    -0.008199    -0.016398     0.831412    Uiso  ? Co
   Co7        1.0     0.649437     0.298873     0.332992    Uiso  ? Co
   Co8        1.0     0.339496     0.678991     0.831551    Uiso  ? Co
   Co9        1.0     0.339496     0.678991     0.668449    Uiso  ? Co
   Co10       1.0     0.649437     0.298873     0.167008    Uiso  ? Co
   Co11       1.0     0.665986     0.832489     0.750000    Uiso  ? Co
   Co12       1.0     0.833551     0.167090     0.250000    Uiso  ? Co
   Co13       1.0     0.166503     0.832489     0.750000    Uiso  ? Co
   Co14       1.0     0.164930     0.329859     0.750000    Uiso  ? Co
   Co15       1.0     0.333539     0.167090     0.250000    Uiso  ? Co
   Co16       1.0     0.669339     0.836490     0.587676    Uiso  ? Co
   Co17       1.0     0.167151     0.836490     0.587676    Uiso  ? Co
   Co18       1.0     0.165614     0.331227     0.589907    Uiso  ? Co
   Co19       1.0     0.833568     0.667135     0.089431    Uiso  ? Co
   Co20       1.0     0.834098     0.165152     0.084977    Uiso  ? Co
   Co21       1.0     0.331054     0.165152     0.084977    Uiso  ? Co
   Co22       1.0     0.331054     0.165152     0.415023    Uiso  ? Co
   Co23       1.0     0.833568     0.667135     0.410569    Uiso  ? Co
   Co24       1.0     0.834098     0.165152     0.415023    Uiso  ? Co
   Co25       1.0     0.167151     0.836490     0.912324    Uiso  ? Co
   Co26       1.0     0.669339     0.836490     0.912324    Uiso  ? Co
   Co27       1.0     0.165614     0.331227     0.910093    Uiso  ? Co
   Mn1        1.0     0.834116     0.668231     0.250000    Uiso  ? Mn
