
#======================================================================
# CRYSTAL DATA
#----------------------------------------------------------------------
data_VESTA_phase_1

_chemical_name_common                  'Sm12 Co42                             '
_cell_length_a                         5.018982
_cell_length_b                         5.018950
_cell_length_c                         36.247471
_cell_angle_alpha                      89.999573
_cell_angle_beta                       89.999786
_cell_angle_gamma                      119.999916
_cell_volume                           790.746448
_space_group_name_H-M_alt              'P 1'
_space_group_IT_number                 1

loop_
_space_group_symop_operation_xyz
   'x, y, z'

loop_
   _atom_site_label
   _atom_site_occupancy
   _atom_site_fract_x
   _atom_site_fract_y
   _atom_site_fract_z
   _atom_site_adp_type
   _atom_site_U_iso_or_equiv
   _atom_site_type_symbol
   Sm1        1.0     0.000027     0.000008     0.948691    Uiso  ? Sm
   Sm2        1.0     0.333321     0.666677     0.717974    Uiso  ? Sm
   Sm3        1.0     0.666656     0.333331     0.282031    Uiso  ? Sm
   Sm4        1.0     1.000007     1.000002     0.051393    Uiso  ? Sm
   Sm5        1.0     0.333342     0.666687     0.615071    Uiso  ? Sm
   Sm6        1.0     0.666657     0.333293     0.384163    Uiso  ? Sm
   Sm7        1.0     1.000005    -0.000002     0.851902    Uiso  ? Sm
   Sm8        1.0     0.333342     0.666663     0.814808    Uiso  ? Sm
   Sm9        1.0     0.666671     0.333376     0.185332    Uiso  ? Sm
   Sm10       1.0     1.000009     0.000030     0.148135    Uiso  ? Sm
   Sm11       1.0     0.333314     0.666646     0.517700    Uiso  ? Sm
   Sm12       1.0     0.666643     0.333300     0.480378    Uiso  ? Sm
   Co1        1.0     0.666680     0.333330     0.833349    Uiso  ? Co
   Co2        1.0     0.333347     0.666710     0.166736    Uiso  ? Co
   Co3        1.0     0.999974    -0.000030     0.499944    Uiso  ? Co
   Co4        1.0     0.999980     1.000043     0.721204    Uiso  ? Co
   Co5        1.0     0.333510     0.666650     0.945477    Uiso  ? Co
   Co6        1.0     0.666707     0.333310     0.054536    Uiso  ? Co
   Co7        1.0     0.999953     0.999967     0.278768    Uiso  ? Co
   Co8        1.0     0.666679     0.333391     0.612209    Uiso  ? Co
   Co9        1.0     0.666565     0.333368     0.945602    Uiso  ? Co
   Co10       1.0     0.666658     0.333311     0.721084    Uiso  ? Co
   Co11       1.0     0.333353     0.666694     0.279397    Uiso  ? Co
   Co12       1.0     0.333318     0.666686     0.054428    Uiso  ? Co
   Co13       1.0     1.000014     0.999991     0.612191    Uiso  ? Co
   Co14       1.0     0.999993     0.999943     0.387898    Uiso  ? Co
   Co15       1.0     0.500001     0.999969     1.000016    Uiso  ? Co
   Co16       1.0     0.499998     0.500026     1.000028    Uiso  ? Co
   Co17       1.0     0.000061     0.500026     1.000011    Uiso  ? Co
   Co18       1.0     0.165873     0.331738     0.333326    Uiso  ? Co
   Co19       1.0     0.165863     0.834115     0.333326    Uiso  ? Co
   Co20       1.0     0.668239     0.834106     0.333328    Uiso  ? Co
   Co21       1.0     0.833369     0.666786     0.666646    Uiso  ? Co
   Co22       1.0     0.833360     0.166658     0.666640    Uiso  ? Co
   Co23       1.0     0.333235     0.166651     0.666643    Uiso  ? Co
   Co24       1.0     0.998063     0.499024     0.891785    Uiso  ? Co
   Co25       1.0     0.501005     0.001984     0.891781    Uiso  ? Co
   Co26       1.0     0.501014     0.499003     0.891778    Uiso  ? Co
   Co27       1.0     0.335304     0.167647     0.774897    Uiso  ? Co
   Co28       1.0     0.832360     0.664705     0.774896    Uiso  ? Co
   Co29       1.0     0.832356     0.167649     0.774899    Uiso  ? Co
   Co30       1.0     0.664235     0.832161     0.225228    Uiso  ? Co
   Co31       1.0     0.167875     0.335797     0.225230    Uiso  ? Co
   Co32       1.0     0.167885     0.832160     0.225229    Uiso  ? Co
   Co33       1.0     0.001901     0.500962     0.108234    Uiso  ? Co
   Co34       1.0     0.499050     0.998104     0.108235    Uiso  ? Co
   Co35       1.0     0.499055     0.500964     0.108231    Uiso  ? Co
   Co36       1.0     0.332311     0.166155     0.558314    Uiso  ? Co
   Co37       1.0     0.833840     0.667693     0.558312    Uiso  ? Co
   Co38       1.0     0.833835     0.166148     0.558315    Uiso  ? Co
   Co39       1.0     0.671934     0.835923     0.441606    Uiso  ? Co
   Co40       1.0     0.163963     0.327930     0.441607    Uiso  ? Co
   Co41       1.0     0.163979     0.835922     0.441607    Uiso  ? Co
   Cr1        1.0     0.333311     0.666616     0.389452    Uiso  ? Cr
