
#======================================================================
# CRYSTAL DATA
#----------------------------------------------------------------------
data_VESTA_phase_1

_chemical_name_common                  'Sm12 Co42                             '
_cell_length_a                         4.986432
_cell_length_b                         5.002448
_cell_length_c                         36.568352
_cell_angle_alpha                      90.007195
_cell_angle_beta                       90.056580
_cell_angle_gamma                      120.107361
_cell_volume                           789.109619
_space_group_name_H-M_alt              'P 1'
_space_group_IT_number                 1

loop_
_space_group_symop_operation_xyz
   'x, y, z'

loop_
   _atom_site_label
   _atom_site_occupancy
   _atom_site_fract_x
   _atom_site_fract_y
   _atom_site_fract_z
   _atom_site_adp_type
   _atom_site_U_iso_or_equiv
   _atom_site_type_symbol
   Sm1        1.0     0.000050     0.000081     0.948541    Uiso  ? Sm
   Sm2        1.0     0.332620     0.666168     0.718011    Uiso  ? Sm
   Sm3        1.0     0.668934     0.334538     0.281507    Uiso  ? Sm
   Sm4        1.0    -0.000010     0.000023     0.051376    Uiso  ? Sm
   Sm5        1.0     0.330711     0.665080     0.616176    Uiso  ? Sm
   Sm6        1.0     0.670017     0.335091     0.383291    Uiso  ? Sm
   Sm7        1.0     0.000564     0.000502     0.851683    Uiso  ? Sm
   Sm8        1.0     0.333216     0.666754     0.815059    Uiso  ? Sm
   Sm9        1.0     0.667150     0.333517     0.185088    Uiso  ? Sm
   Sm10       1.0     0.000112    -0.000012     0.147963    Uiso  ? Sm
   Sm11       1.0     0.327612     0.663834     0.519356    Uiso  ? Sm
   Sm12       1.0     0.665622     0.332949     0.482557    Uiso  ? Sm
   Co1        1.0     0.666865     0.333601     0.834464    Uiso  ? Co
   Co2        1.0     0.333363     0.666614     0.166470    Uiso  ? Co
   Co3        1.0    -0.005212    -0.002578     0.500071    Uiso  ? Co
   Co4        1.0    -0.000854    -0.000666     0.722957    Uiso  ? Co
   Co5        1.0     0.335023     0.669016     0.945511    Uiso  ? Co
   Co6        1.0     0.671364     0.336766     0.054391    Uiso  ? Co
   Co7        1.0    -0.015233    -0.007481     0.278499    Uiso  ? Co
   Co8        1.0     0.305429     0.652884     0.387132    Uiso  ? Co
   Co9        1.0     0.658714     0.328311     0.612291    Uiso  ? Co
   Co10       1.0     0.665327     0.331394     0.946660    Uiso  ? Co
   Co11       1.0     0.666338     0.333191     0.721911    Uiso  ? Co
   Co12       1.0     0.352841     0.676400     0.278463    Uiso  ? Co
   Co13       1.0     0.329164     0.663688     0.054587    Uiso  ? Co
   Co14       1.0     0.003057     0.001991     0.612513    Uiso  ? Co
   Co15       1.0     0.033932     0.017004     0.386433    Uiso  ? Co
   Co16       1.0     0.499297    -0.001155     0.000427    Uiso  ? Co
   Co17       1.0     0.499351     0.500187     0.000278    Uiso  ? Co
   Co18       1.0     0.000923     0.500321     0.000008    Uiso  ? Co
   Co19       1.0     0.170495     0.335934     0.331852    Uiso  ? Co
   Co20       1.0     0.170484     0.834620     0.331842    Uiso  ? Co
   Co21       1.0     0.670776     0.835408     0.334530    Uiso  ? Co
   Co22       1.0     0.831968     0.666457     0.666426    Uiso  ? Co
   Co23       1.0     0.831875     0.165052     0.666472    Uiso  ? Co
   Co24       1.0     0.331652     0.165544     0.666760    Uiso  ? Co
   Co25       1.0    -0.003546     0.498504     0.892515    Uiso  ? Co
   Co26       1.0     0.502322     0.004155     0.892448    Uiso  ? Co
   Co27       1.0     0.502306     0.498737     0.892552    Uiso  ? Co
   Co28       1.0     0.337633     0.168885     0.774720    Uiso  ? Co
   Co29       1.0     0.830568     0.661697     0.774727    Uiso  ? Co
   Co30       1.0     0.830638     0.168960     0.774716    Uiso  ? Co
   Co31       1.0     0.664882     0.832442     0.224259    Uiso  ? Co
   Co32       1.0     0.168072     0.335614     0.225348    Uiso  ? Co
   Co33       1.0     0.168040     0.832497     0.225356    Uiso  ? Co
   Co34       1.0     0.002430     0.501190     0.108259    Uiso  ? Co
   Co35       1.0     0.499365    -0.001424     0.107871    Uiso  ? Co
   Co36       1.0     0.499344     0.500820     0.107949    Uiso  ? Co
   Co37       1.0     0.325376     0.162573     0.558824    Uiso  ? Co
   Co38       1.0     0.830020     0.667297     0.559139    Uiso  ? Co
   Co39       1.0     0.830243     0.162276     0.559059    Uiso  ? Co
   Co40       1.0     0.167046     0.331929     0.441242    Uiso  ? Co
   Co41       1.0     0.167035     0.835331     0.441245    Uiso  ? Co
   Cr1        1.0     0.674687     0.837490     0.438216    Uiso  ? Cr
