
#======================================================================
# CRYSTAL DATA
#----------------------------------------------------------------------
data_VESTA_phase_1

_chemical_name_common                  'Sm12 Co42                             '
_cell_length_a                         4.996557
_cell_length_b                         5.023635
_cell_length_c                         36.408741
_cell_angle_alpha                      89.998756
_cell_angle_beta                       89.943359
_cell_angle_gamma                      120.192162
_cell_volume                           789.915752
_space_group_name_H-M_alt              'P 1'
_space_group_IT_number                 1

loop_
_space_group_symop_operation_xyz
   'x, y, z'

loop_
   _atom_site_label
   _atom_site_occupancy
   _atom_site_fract_x
   _atom_site_fract_y
   _atom_site_fract_z
   _atom_site_adp_type
   _atom_site_U_iso_or_equiv
   _atom_site_type_symbol
   Sm1        1.0     0.000141     0.000039     0.948483    Uiso  ? Sm
   Sm2        1.0     0.333161     0.666613     0.718199    Uiso  ? Sm
   Sm3        1.0     0.665992     0.332983     0.281358    Uiso  ? Sm
   Sm4        1.0     0.999309     0.999673     0.051039    Uiso  ? Sm
   Sm5        1.0     0.334138     0.667070     0.615563    Uiso  ? Sm
   Sm6        1.0     0.667416     0.333732     0.385307    Uiso  ? Sm
   Sm7        1.0     0.000059    -0.000059     0.851905    Uiso  ? Sm
   Sm8        1.0     0.333259     0.666597     0.814862    Uiso  ? Sm
   Sm9        1.0     0.666412     0.333260     0.185041    Uiso  ? Sm
   Sm10       1.0     0.998478     0.999314     0.147798    Uiso  ? Sm
   Sm11       1.0     0.334863     0.667387     0.518826    Uiso  ? Sm
   Sm12       1.0     0.666958     0.333492     0.481591    Uiso  ? Sm
   Co1        1.0     0.666850     0.333393     0.833368    Uiso  ? Co
   Co2        1.0     0.332772     0.666420     0.166238    Uiso  ? Co
   Co3        1.0     0.000607     0.000299     0.500448    Uiso  ? Co
   Co4        1.0     0.004871     0.002499     0.721410    Uiso  ? Co
   Co5        1.0     0.328212     0.664276     0.945285    Uiso  ? Co
   Co6        1.0     0.670668     0.335134     0.054242    Uiso  ? Co
   Co7        1.0     0.009383     0.004841     0.278356    Uiso  ? Co
   Co8        1.0     0.324185     0.661820     0.388289    Uiso  ? Co
   Co9        1.0     0.662069     0.330959     0.612420    Uiso  ? Co
   Co10       1.0     0.672221     0.335855     0.945451    Uiso  ? Co
   Co11       1.0     0.661332     0.330686     0.721228    Uiso  ? Co
   Co12       1.0     0.320905     0.660275     0.278377    Uiso  ? Co
   Co13       1.0     0.327925     0.664147     0.054183    Uiso  ? Co
   Co14       1.0     0.005999     0.003094     0.612478    Uiso  ? Co
   Co15       1.0     0.012316     0.006523     0.388272    Uiso  ? Co
   Co16       1.0     0.499757    -0.000018     0.999744    Uiso  ? Co
   Co17       1.0     0.499743     0.499895     0.999742    Uiso  ? Co
   Co18       1.0    -0.000030     0.500031     0.999816    Uiso  ? Co
   Co19       1.0     0.166876     0.333452     0.333332    Uiso  ? Co
   Co20       1.0     0.166872     0.833402     0.333344    Uiso  ? Co
   Co21       1.0     0.833735     0.666863     0.666884    Uiso  ? Co
   Co22       1.0     0.833720     0.166846     0.666889    Uiso  ? Co
   Co23       1.0     0.333487     0.166732     0.666861    Uiso  ? Co
   Co24       1.0     0.997346     0.498595     0.891466    Uiso  ? Co
   Co25       1.0     0.500553     0.001839     0.891889    Uiso  ? Co
   Co26       1.0     0.500541     0.498421     0.891917    Uiso  ? Co
   Co27       1.0     0.335761     0.167856     0.775249    Uiso  ? Co
   Co28       1.0     0.832595     0.664636     0.774819    Uiso  ? Co
   Co29       1.0     0.832641     0.167908     0.774817    Uiso  ? Co
   Co30       1.0     0.665012     0.832563     0.225597    Uiso  ? Co
   Co31       1.0     0.168615     0.335678     0.224276    Uiso  ? Co
   Co32       1.0     0.168663     0.832976     0.224294    Uiso  ? Co
   Co33       1.0     0.001158     0.500626     0.108152    Uiso  ? Co
   Co34       1.0     0.498146     0.997597     0.107721    Uiso  ? Co
   Co35       1.0     0.498233     0.500606     0.107693    Uiso  ? Co
   Co36       1.0     0.331920     0.165921     0.558482    Uiso  ? Co
   Co37       1.0     0.835046     0.668930     0.558954    Uiso  ? Co
   Co38       1.0     0.834965     0.166088     0.558952    Uiso  ? Co
   Co39       1.0     0.668103     0.834080     0.441053    Uiso  ? Co
   Co40       1.0     0.164554     0.330861     0.442392    Uiso  ? Co
   Co41       1.0     0.164537     0.833838     0.442349    Uiso  ? Co
   Cr1        1.0     0.666949     0.833456     0.333295    Uiso  ? Cr
