
#======================================================================
# CRYSTAL DATA
#----------------------------------------------------------------------
data_VESTA_phase_1

_chemical_name_common                  'Sm12 Co42                             '
_cell_length_a                         5.088941
_cell_length_b                         5.088883
_cell_length_c                         35.750511
_cell_angle_alpha                      89.999840
_cell_angle_beta                       89.999969
_cell_angle_gamma                      120.000229
_cell_volume                           801.792169
_space_group_name_H-M_alt              'P 1'
_space_group_IT_number                 1

loop_
_space_group_symop_operation_xyz
   'x, y, z'

loop_
   _atom_site_label
   _atom_site_occupancy
   _atom_site_fract_x
   _atom_site_fract_y
   _atom_site_fract_z
   _atom_site_adp_type
   _atom_site_U_iso_or_equiv
   _atom_site_type_symbol
   Sm1        1.0     0.000015     0.999999     0.948964    Uiso  ? Sm
   Sm2        1.0     0.333328     0.666714     0.716991    Uiso  ? Sm
   Sm3        1.0     0.666658     0.333298     0.283571    Uiso  ? Sm
   Sm4        1.0     0.000018     0.999979     0.051010    Uiso  ? Sm
   Sm5        1.0     0.333332     0.666690     0.616115    Uiso  ? Sm
   Sm6        1.0     0.666670     0.333322     0.384292    Uiso  ? Sm
   Sm7        1.0     0.999998     0.000042     0.853023    Uiso  ? Sm
   Sm8        1.0     0.333325     0.666706     0.812713    Uiso  ? Sm
   Sm9        1.0     0.666670     0.333295     0.188077    Uiso  ? Sm
   Sm10       1.0     0.000016     0.999962     0.148586    Uiso  ? Sm
   Sm11       1.0     0.333321     0.666665     0.520322    Uiso  ? Sm
   Sm12       1.0     0.666659     0.333328     0.480004    Uiso  ? Sm
   Co1        1.0     0.666697     0.333298     0.053632    Uiso  ? Co
   Co2        1.0     0.666662     0.333330     0.945922    Uiso  ? Co
   Co3        1.0     0.666695     0.333341     0.719884    Uiso  ? Co
   Co4        1.0     0.333328     0.666639     0.280538    Uiso  ? Co
   Co5        1.0     0.333344     0.666670     0.054124    Uiso  ? Co
   Co6        1.0     0.999974     0.000006     0.613182    Uiso  ? Co
   Co7        1.0    -0.000002     0.999979     0.387133    Uiso  ? Co
   Co8        1.0     0.499340     0.998608     0.999396    Uiso  ? Co
   Co9        1.0     0.499323     0.500680     0.999398    Uiso  ? Co
   Co10       1.0     0.001409     0.500679     0.999396    Uiso  ? Co
   Co11       1.0     0.166482     0.332970     0.333727    Uiso  ? Co
   Co12       1.0     0.166510     0.833486     0.333730    Uiso  ? Co
   Co13       1.0     0.666990     0.833480     0.333728    Uiso  ? Co
   Co14       1.0     0.833361     0.666788     0.666561    Uiso  ? Co
   Co15       1.0     0.833370     0.166642     0.666559    Uiso  ? Co
   Co16       1.0     0.333218     0.166650     0.666558    Uiso  ? Co
   Co17       1.0     0.994392     0.497214     0.892027    Uiso  ? Co
   Co18       1.0     0.502820     0.005636     0.892025    Uiso  ? Co
   Co19       1.0     0.502815     0.497206     0.892026    Uiso  ? Co
   Co20       1.0     0.339618     0.169860     0.773835    Uiso  ? Co
   Co21       1.0     0.830158     0.660404     0.773834    Uiso  ? Co
   Co22       1.0     0.830157     0.169858     0.773836    Uiso  ? Co
   Co23       1.0     0.658449     0.829202     0.226345    Uiso  ? Co
   Co24       1.0     0.170770     0.341520     0.226345    Uiso  ? Co
   Co25       1.0     0.170771     0.829201     0.226344    Uiso  ? Co
   Co26       1.0     0.997807     0.498870     0.107814    Uiso  ? Co
   Co27       1.0     0.501116     0.002171     0.107815    Uiso  ? Co
   Co28       1.0     0.501101     0.498877     0.107811    Uiso  ? Co
   Co29       1.0     0.327429     0.163735     0.559316    Uiso  ? Co
   Co30       1.0     0.836260     0.672575     0.559315    Uiso  ? Co
   Co31       1.0     0.836250     0.163731     0.559316    Uiso  ? Co
   Co32       1.0     0.672745     0.836368     0.441010    Uiso  ? Co
   Co33       1.0     0.163621     0.327241     0.441009    Uiso  ? Co
   Co34       1.0     0.163632     0.836364     0.441010    Uiso  ? Co
   Cr1        1.0     0.333348     0.666640     0.165363    Uiso  ? Cr
   Cr2        1.0    -0.000005     0.999997     0.500172    Uiso  ? Cr
   Cr3        1.0     0.666655     0.333348     0.833141    Uiso  ? Cr
   Cr4        1.0     0.333342     0.666640     0.390137    Uiso  ? Cr
   Cr5        1.0     0.000003     0.999966     0.277051    Uiso  ? Cr
   Cr6        1.0     0.666688     0.333385     0.610251    Uiso  ? Cr
   Cr7        1.0     0.999991     0.000059     0.722923    Uiso  ? Cr
   Cr8        1.0     0.333359     0.666686     0.942794    Uiso  ? Cr
