
#======================================================================
# CRYSTAL DATA
#----------------------------------------------------------------------
data_VESTA_phase_1

_chemical_name_common                  'Sm12 Co42                             '
_cell_length_a                         5.066445
_cell_length_b                         5.066349
_cell_length_c                         36.016373
_cell_angle_alpha                      89.999321
_cell_angle_beta                       90.000084
_cell_angle_gamma                      119.999870
_cell_volume                           800.625832
_space_group_name_H-M_alt              'P 1'
_space_group_IT_number                 1

loop_
_space_group_symop_operation_xyz
   'x, y, z'

loop_
   _atom_site_label
   _atom_site_occupancy
   _atom_site_fract_x
   _atom_site_fract_y
   _atom_site_fract_z
   _atom_site_adp_type
   _atom_site_U_iso_or_equiv
   _atom_site_type_symbol
   Sm1        1.0     0.999958     0.000008     0.949320    Uiso  ? Sm
   Sm2        1.0     0.333366     0.666660     0.716518    Uiso  ? Sm
   Sm3        1.0     0.666634     0.333317     0.283854    Uiso  ? Sm
   Sm4        1.0     0.999968     0.000042     0.052073    Uiso  ? Sm
   Sm5        1.0     0.333378     0.666654     0.614986    Uiso  ? Sm
   Sm6        1.0     0.666659     0.333325     0.384054    Uiso  ? Sm
   Sm7        1.0     0.000010     0.999990     0.852303    Uiso  ? Sm
   Sm8        1.0     0.333358     0.666663     0.813374    Uiso  ? Sm
   Sm9        1.0     0.666646     0.333343     0.188863    Uiso  ? Sm
   Sm10       1.0    -0.000020     0.000018     0.149192    Uiso  ? Sm
   Sm11       1.0     0.333330     0.666622     0.519637    Uiso  ? Sm
   Sm12       1.0     0.666672     0.333310     0.479177    Uiso  ? Sm
   Co1        1.0     0.000029     0.000016     0.719518    Uiso  ? Co
   Co2        1.0     0.333306     0.666671     0.946194    Uiso  ? Co
   Co3        1.0     0.666721     0.333478     0.054603    Uiso  ? Co
   Co4        1.0     0.666681     0.333351     0.946122    Uiso  ? Co
   Co5        1.0     0.666713     0.333321     0.719624    Uiso  ? Co
   Co6        1.0     0.333293     0.666645     0.280739    Uiso  ? Co
   Co7        1.0     0.333260     0.666634     0.055332    Uiso  ? Co
   Co8        1.0     0.000026     0.999999     0.611825    Uiso  ? Co
   Co9        1.0    -0.000003    -0.000002     0.386952    Uiso  ? Co
   Co10       1.0     0.499715     0.999588     0.000623    Uiso  ? Co
   Co11       1.0     0.499708     0.500265     0.000618    Uiso  ? Co
   Co12       1.0     0.000399     0.500270     0.000616    Uiso  ? Co
   Co13       1.0     0.166758     0.333524     0.333877    Uiso  ? Co
   Co14       1.0     0.166770     0.833221     0.333878    Uiso  ? Co
   Co15       1.0     0.666422     0.833203     0.333879    Uiso  ? Co
   Co16       1.0     0.833077     0.666088     0.665330    Uiso  ? Co
   Co17       1.0     0.833100     0.166917     0.665327    Uiso  ? Co
   Co18       1.0     0.333944     0.166940     0.665331    Uiso  ? Co
   Co19       1.0     0.000779     0.500383     0.892463    Uiso  ? Co
   Co20       1.0     0.499601     0.999205     0.892462    Uiso  ? Co
   Co21       1.0     0.499589     0.500394     0.892463    Uiso  ? Co
   Co22       1.0     0.332632     0.166295     0.773225    Uiso  ? Co
   Co23       1.0     0.833754     0.667425     0.773228    Uiso  ? Co
   Co24       1.0     0.833754     0.166289     0.773228    Uiso  ? Co
   Co25       1.0     0.659375     0.829708     0.226892    Uiso  ? Co
   Co26       1.0     0.170268     0.340596     0.226893    Uiso  ? Co
   Co27       1.0     0.170282     0.829712     0.226891    Uiso  ? Co
   Co28       1.0     0.997151     0.498622     0.108701    Uiso  ? Co
   Co29       1.0     0.501362     0.002815     0.108695    Uiso  ? Co
   Co30       1.0     0.501366     0.498632     0.108696    Uiso  ? Co
   Co31       1.0     0.328557     0.164234     0.558328    Uiso  ? Co
   Co32       1.0     0.835747     0.671445     0.558327    Uiso  ? Co
   Co33       1.0     0.835755     0.164213     0.558331    Uiso  ? Co
   Co34       1.0     0.673424     0.836701     0.440590    Uiso  ? Co
   Co35       1.0     0.163299     0.326574     0.440589    Uiso  ? Co
   Co36       1.0     0.163288     0.836707     0.440589    Uiso  ? Co
   Cr1        1.0     0.333348     0.666651     0.166269    Uiso  ? Cr
   Cr2        1.0     0.000007     0.999968     0.499838    Uiso  ? Cr
   Cr3        1.0     0.666686     0.333328     0.832688    Uiso  ? Cr
   Cr4        1.0     0.333321     0.666652     0.390135    Uiso  ? Cr
   Cr5        1.0     0.000051     0.000026     0.277631    Uiso  ? Cr
   Cr6        1.0     0.666729     0.333343     0.609109    Uiso  ? Cr
