
#======================================================================
# CRYSTAL DATA
#----------------------------------------------------------------------
data_VESTA_phase_1

_chemical_name_common                  'Sm12 Co42                             '
_cell_length_a                         5.021250
_cell_length_b                         5.021234
_cell_length_c                         36.404453
_cell_angle_alpha                      90.000038
_cell_angle_beta                       89.999886
_cell_angle_gamma                      119.999702
_cell_volume                           794.893041
_space_group_name_H-M_alt              'P 1'
_space_group_IT_number                 1

loop_
_space_group_symop_operation_xyz
   'x, y, z'

loop_
   _atom_site_label
   _atom_site_occupancy
   _atom_site_fract_x
   _atom_site_fract_y
   _atom_site_fract_z
   _atom_site_adp_type
   _atom_site_U_iso_or_equiv
   _atom_site_type_symbol
   Sm1        1.0     0.000024     0.999930     0.949785    Uiso  ? Sm
   Sm2        1.0     0.333367     0.666660     0.716886    Uiso  ? Sm
   Sm3        1.0     0.666565     0.333347     0.282071    Uiso  ? Sm
   Sm4        1.0     0.000055     0.000034     0.052076    Uiso  ? Sm
   Sm5        1.0     0.333393     0.666676     0.614572    Uiso  ? Sm
   Sm6        1.0     0.666662     0.333371     0.384611    Uiso  ? Sm
   Sm7        1.0     0.999949     0.999953     0.853004    Uiso  ? Sm
   Sm8        1.0     0.333296     0.666637     0.813686    Uiso  ? Sm
   Sm9        1.0     0.666713     0.333295     0.185473    Uiso  ? Sm
   Sm10       1.0     0.000028     0.999976     0.148572    Uiso  ? Sm
   Sm11       1.0     0.333327     0.666659     0.518161    Uiso  ? Sm
   Sm12       1.0     0.666681     0.333355     0.481172    Uiso  ? Sm
   Co1        1.0     0.333371     0.666657     0.167138    Uiso  ? Co
   Co2        1.0     0.999964     0.999994     0.499502    Uiso  ? Co
   Co3        1.0     0.000400     0.000216     0.719702    Uiso  ? Co
   Co4        1.0     0.333264     0.666705     0.946958    Uiso  ? Co
   Co5        1.0     0.666294     0.333287     0.055451    Uiso  ? Co
   Co6        1.0     0.999871     0.000008     0.278935    Uiso  ? Co
   Co7        1.0     0.333417     0.666650     0.387780    Uiso  ? Co
   Co8        1.0     0.666779     0.333354     0.611112    Uiso  ? Co
   Co9        1.0     0.666804     0.333189     0.946490    Uiso  ? Co
   Co10       1.0     0.666389     0.333161     0.720201    Uiso  ? Co
   Co11       1.0     0.333329     0.666684     0.278980    Uiso  ? Co
   Co12       1.0     0.333765     0.666739     0.054973    Uiso  ? Co
   Co13       1.0     0.999851     0.999940     0.611710    Uiso  ? Co
   Co14       1.0     0.999912     0.000113     0.387636    Uiso  ? Co
   Co15       1.0     0.500270     0.000335     0.001004    Uiso  ? Co
   Co16       1.0     0.500270     0.499844     0.000984    Uiso  ? Co
   Co17       1.0     0.999682     0.499801     0.001021    Uiso  ? Co
   Co18       1.0     0.166724     0.333576     0.333325    Uiso  ? Co
   Co19       1.0     0.166696     0.833273     0.333336    Uiso  ? Co
   Co20       1.0     0.666426     0.833270     0.333328    Uiso  ? Co
   Co21       1.0     0.833093     0.666224     0.665645    Uiso  ? Co
   Co22       1.0     0.833106     0.166860     0.665647    Uiso  ? Co
   Co23       1.0     0.333746     0.166867     0.665623    Uiso  ? Co
   Co24       1.0     0.001215     0.500583     0.893223    Uiso  ? Co
   Co25       1.0     0.499336     0.998730     0.893214    Uiso  ? Co
   Co26       1.0     0.499356     0.500619     0.893227    Uiso  ? Co
   Co27       1.0     0.332102     0.166062     0.773512    Uiso  ? Co
   Co28       1.0     0.833974     0.667967     0.773501    Uiso  ? Co
   Co29       1.0     0.833963     0.166009     0.773501    Uiso  ? Co
   Co30       1.0     0.664772     0.832382     0.225365    Uiso  ? Co
   Co31       1.0     0.167646     0.335261     0.225366    Uiso  ? Co
   Co32       1.0     0.167632     0.832353     0.225368    Uiso  ? Co
   Co33       1.0     0.002712     0.501381     0.108717    Uiso  ? Co
   Co34       1.0     0.498530     0.997178     0.108737    Uiso  ? Co
   Co35       1.0     0.498530     0.501383     0.108751    Uiso  ? Co
   Co36       1.0     0.330628     0.165286     0.557875    Uiso  ? Co
   Co37       1.0     0.834776     0.669416     0.557872    Uiso  ? Co
   Co38       1.0     0.834723     0.165253     0.557867    Uiso  ? Co
   Co39       1.0     0.668495     0.834267     0.441332    Uiso  ? Co
   Co40       1.0     0.165753     0.331552     0.441328    Uiso  ? Co
   Co41       1.0     0.165728     0.834309     0.441323    Uiso  ? Co
   Cr1        1.0     0.666643     0.333371     0.833370    Uiso  ? Cr
