
#======================================================================
# CRYSTAL DATA
#----------------------------------------------------------------------
data_VESTA_phase_1

_chemical_name_common                  'Sm12 Co42                             '
_cell_length_a                         5.017035
_cell_length_b                         5.016757
_cell_length_c                         36.239265
_cell_angle_alpha                      89.996925
_cell_angle_beta                       90.002724
_cell_angle_gamma                      120.005432
_cell_volume                           789.871342
_space_group_name_H-M_alt              'P 1'
_space_group_IT_number                 1

loop_
_space_group_symop_operation_xyz
   'x, y, z'

loop_
   _atom_site_label
   _atom_site_occupancy
   _atom_site_fract_x
   _atom_site_fract_y
   _atom_site_fract_z
   _atom_site_adp_type
   _atom_site_U_iso_or_equiv
   _atom_site_type_symbol
   Sm1        1.0     0.999763     0.999632     0.948755    Uiso  ? Sm
   Sm2        1.0     0.333412     0.666584     0.717846    Uiso  ? Sm
   Sm3        1.0     0.666851     0.333782     0.282081    Uiso  ? Sm
   Sm4        1.0    -0.000156     0.999845     0.051840    Uiso  ? Sm
   Sm5        1.0     0.333458     0.666535     0.615236    Uiso  ? Sm
   Sm6        1.0     0.666702     0.333457     0.384452    Uiso  ? Sm
   Sm7        1.0     0.999788    -0.000499     0.851765    Uiso  ? Sm
   Sm8        1.0     0.333273     0.666426     0.814631    Uiso  ? Sm
   Sm9        1.0     0.667044     0.333869     0.186423    Uiso  ? Sm
   Sm10       1.0     0.000290     0.000519     0.149236    Uiso  ? Sm
   Sm11       1.0     0.333043     0.666129     0.518337    Uiso  ? Sm
   Sm12       1.0     0.666362     0.332829     0.481303    Uiso  ? Sm
   Co1        1.0     0.666506     0.332914     0.833147    Uiso  ? Co
   Co2        1.0     0.333676     0.667253     0.167413    Uiso  ? Co
   Co3        1.0     0.999693     0.999399     0.500104    Uiso  ? Co
   Co4        1.0     0.002676     0.006127     0.721087    Uiso  ? Co
   Co5        1.0     0.331707     0.666552     0.945406    Uiso  ? Co
   Co6        1.0     0.665159     0.333025     0.054760    Uiso  ? Co
   Co7        1.0     0.000119     0.000519     0.278494    Uiso  ? Co
   Co8        1.0     0.333357     0.667128     0.387406    Uiso  ? Co
   Co9        1.0     0.669407     0.340335     0.612154    Uiso  ? Co
   Co10       1.0     0.667667     0.332634     0.945608    Uiso  ? Co
   Co11       1.0     0.664342     0.327365     0.720900    Uiso  ? Co
   Co12       1.0     0.334397     0.666732     0.054544    Uiso  ? Co
   Co13       1.0     0.997755     0.993204     0.612154    Uiso  ? Co
   Co14       1.0     1.000037    -0.000298     0.387652    Uiso  ? Co
   Co15       1.0     0.499782     0.999525     1.000105    Uiso  ? Co
   Co16       1.0     0.499868     0.499476     1.000000    Uiso  ? Co
   Co17       1.0    -0.000206     0.499583     1.000216    Uiso  ? Co
   Co18       1.0     0.165999     0.332001     0.333180    Uiso  ? Co
   Co19       1.0     0.166057     0.834298     0.333153    Uiso  ? Co
   Co20       1.0     0.668303     0.834326     0.333175    Uiso  ? Co
   Co21       1.0     0.833294     0.666337     0.667075    Uiso  ? Co
   Co22       1.0     0.833552     0.166311     0.666246    Uiso  ? Co
   Co23       1.0     0.333198     0.166419     0.666357    Uiso  ? Co
   Co24       1.0     0.997413     0.498473     0.891649    Uiso  ? Co
   Co25       1.0     0.501013     0.002208     0.891682    Uiso  ? Co
   Co26       1.0     0.500708     0.498570     0.891769    Uiso  ? Co
   Co27       1.0     0.335546     0.167899     0.774819    Uiso  ? Co
   Co28       1.0     0.832461     0.664798     0.774472    Uiso  ? Co
   Co29       1.0     0.832442     0.167891     0.774854    Uiso  ? Co
   Co30       1.0     0.666795     0.833783     0.225232    Uiso  ? Co
   Co31       1.0     0.167082     0.333953     0.225238    Uiso  ? Co
   Co32       1.0     0.167026     0.833924     0.225244    Uiso  ? Co
   Co33       1.0     0.002077     0.501332     0.108498    Uiso  ? Co
   Co34       1.0     0.498834     0.997844     0.108570    Uiso  ? Co
   Co35       1.0     0.498986     0.501427     0.108587    Uiso  ? Co
   Co36       1.0     0.331783     0.165881     0.558565    Uiso  ? Co
   Co37       1.0     0.834389     0.668811     0.558143    Uiso  ? Co
   Co38       1.0     0.834113     0.165848     0.558649    Uiso  ? Co
   Co39       1.0     0.669163     0.834497     0.441441    Uiso  ? Co
   Co40       1.0     0.165357     0.330952     0.441415    Uiso  ? Co
   Co41       1.0     0.165093     0.834530     0.441454    Uiso  ? Co
   Cr1        1.0     0.333546     0.667107     0.277478    Uiso  ? Cr
