
#======================================================================
# CRYSTAL DATA
#----------------------------------------------------------------------
data_VESTA_phase_1

_chemical_name_common                  'Sm8 Co28                              '
_cell_length_a                         5.019214
_cell_length_b                         5.019214
_cell_length_c                         24.164713
_cell_angle_alpha                      90.000000
_cell_angle_beta                       90.000000
_cell_angle_gamma                      120.000000
_cell_volume                           527.210002
_space_group_name_H-M_alt              'P 1'
_space_group_IT_number                 1

loop_
_space_group_symop_operation_xyz
   'x, y, z'

loop_
   _atom_site_label
   _atom_site_occupancy
   _atom_site_fract_x
   _atom_site_fract_y
   _atom_site_fract_z
   _atom_site_adp_type
   _atom_site_U_iso_or_equiv
   _atom_site_type_symbol
   Sm1        1.0     0.666667     0.333333     0.526713    Uiso  ? Sm
   Sm2        1.0     0.333333     0.666667     0.028051    Uiso  ? Sm
   Sm3        1.0     0.333333     0.666667     0.470696    Uiso  ? Sm
   Sm4        1.0     0.666667     0.333333     0.972363    Uiso  ? Sm
   Sm5        1.0     0.666667     0.333333     0.672659    Uiso  ? Sm
   Sm6        1.0     0.333333     0.666667     0.173341    Uiso  ? Sm
   Sm7        1.0     0.333333     0.666667     0.326192    Uiso  ? Sm
   Sm8        1.0     0.666667     0.333333     0.826866    Uiso  ? Sm
   Co1        1.0     0.000000     -0.000000     0.499669    Uiso  ? Co
   Co2        1.0     0.000000     -0.000000     0.000070    Uiso  ? Co
   Co3        1.0     0.000000     -0.000000     0.667990    Uiso  ? Co
   Co4        1.0     0.000000     -0.000000     0.168266    Uiso  ? Co
   Co5        1.0     0.000000     -0.000000     0.332157    Uiso  ? Co
   Co6        1.0     0.000000     -0.000000     0.831694    Uiso  ? Co
   Co7        1.0     0.333333     0.666667     0.831761    Uiso  ? Co
   Co8        1.0     0.333333     0.666667     0.668351    Uiso  ? Co
   Co9        1.0     0.666667     0.333333     0.169256    Uiso  ? Co
   Co10       1.0     0.667719     0.833860     0.749908    Uiso  ? Co
   Co11       1.0     0.834549     0.669097     0.250191    Uiso  ? Co
   Co12       1.0     0.834549     0.165452     0.250191    Uiso  ? Co
   Co13       1.0     0.166140     0.833860     0.749908    Uiso  ? Co
   Co14       1.0     0.166140     0.332281     0.749908    Uiso  ? Co
   Co15       1.0     0.330903     0.165452     0.250191    Uiso  ? Co
   Co16       1.0     0.667473     0.833737     0.587414    Uiso  ? Co
   Co17       1.0     0.166263     0.833737     0.587414    Uiso  ? Co
   Co18       1.0     0.166263     0.332527     0.587414    Uiso  ? Co
   Co19       1.0     0.834215     0.668430     0.087935    Uiso  ? Co
   Co20       1.0     0.834215     0.165785     0.087935    Uiso  ? Co
   Co21       1.0     0.331570     0.165785     0.087935    Uiso  ? Co
   Co22       1.0     0.329140     0.164570     0.412435    Uiso  ? Co
   Co23       1.0     0.835430     0.670860     0.412435    Uiso  ? Co
   Co24       1.0     0.835430     0.164570     0.412435    Uiso  ? Co
   Co25       1.0     0.165675     0.834325     0.912301    Uiso  ? Co
   Co26       1.0     0.668651     0.834325     0.912301    Uiso  ? Co
   Co27       1.0     0.165675     0.331349     0.912301    Uiso  ? Co
   Cr1        1.0     0.666667     0.333333     0.333351    Uiso  ? Cr
