
#======================================================================
# CRYSTAL DATA
#----------------------------------------------------------------------
data_VESTA_phase_1

_chemical_name_common                  'Sm8 Co28                              '
_cell_length_a                         5.048894
_cell_length_b                         5.019104
_cell_length_c                         24.370474
_cell_angle_alpha                      90.000000
_cell_angle_beta                       90.000000
_cell_angle_gamma                      120.196541
_cell_volume                           533.769219
_space_group_name_H-M_alt              'P 1'
_space_group_IT_number                 1

loop_
_space_group_symop_operation_xyz
   'x, y, z'

loop_
   _atom_site_label
   _atom_site_occupancy
   _atom_site_fract_x
   _atom_site_fract_y
   _atom_site_fract_z
   _atom_site_adp_type
   _atom_site_U_iso_or_equiv
   _atom_site_type_symbol
   Sm1        1.0     0.667171     0.334341     0.529507    Uiso  ? Sm
   Sm2        1.0     0.333788     0.667575     0.029279    Uiso  ? Sm
   Sm3        1.0     0.333788     0.667575     0.470721    Uiso  ? Sm
   Sm4        1.0     0.667171     0.334341     0.970493    Uiso  ? Sm
   Sm5        1.0     0.666938     0.333876     0.673631    Uiso  ? Sm
   Sm6        1.0     0.332568     0.665136     0.172498    Uiso  ? Sm
   Sm7        1.0     0.332568     0.665136     0.327502    Uiso  ? Sm
   Sm8        1.0     0.666938     0.333876     0.826369    Uiso  ? Sm
   Co1        1.0     0.005007     0.010014     0.668345    Uiso  ? Co
   Co2        1.0     0.005387     0.010774     0.167736    Uiso  ? Co
   Co3        1.0     0.005387     0.010774     0.332264    Uiso  ? Co
   Co4        1.0     0.005007     0.010014     0.831655    Uiso  ? Co
   Co5        1.0     0.659545     0.319090     0.331326    Uiso  ? Co
   Co6        1.0     0.329368     0.658737     0.830363    Uiso  ? Co
   Co7        1.0     0.329368     0.658737     0.669637    Uiso  ? Co
   Co8        1.0     0.659545     0.319090     0.168674    Uiso  ? Co
   Co9        1.0     0.668616     0.834471     0.750000    Uiso  ? Co
   Co10       1.0     0.833045     0.164017     0.250000    Uiso  ? Co
   Co11       1.0     0.165855     0.834471     0.750000    Uiso  ? Co
   Co12       1.0     0.166098     0.332197     0.750000    Uiso  ? Co
   Co13       1.0     0.330972     0.164017     0.250000    Uiso  ? Co
   Co14       1.0     0.665179     0.833645     0.589430    Uiso  ? Co
   Co15       1.0     0.168466     0.833645     0.589430    Uiso  ? Co
   Co16       1.0     0.167931     0.335863     0.588448    Uiso  ? Co
   Co17       1.0     0.832274     0.664549     0.089632    Uiso  ? Co
   Co18       1.0     0.833244     0.167625     0.087666    Uiso  ? Co
   Co19       1.0     0.334381     0.167625     0.087666    Uiso  ? Co
   Co20       1.0     0.334381     0.167625     0.412334    Uiso  ? Co
   Co21       1.0     0.832274     0.664549     0.410368    Uiso  ? Co
   Co22       1.0     0.833244     0.167625     0.412334    Uiso  ? Co
   Co23       1.0     0.168466     0.833645     0.910570    Uiso  ? Co
   Co24       1.0     0.665179     0.833645     0.910570    Uiso  ? Co
   Co25       1.0     0.167931     0.335863     0.911552    Uiso  ? Co
   Cr1        1.0    -0.000092    -0.000185     0.500228    Uiso  ? Cr
   Cr2        1.0    -0.000092    -0.000185    -0.000228    Uiso  ? Cr
   Cr3        1.0     0.833103     0.666206     0.250000    Uiso  ? Cr
