
#======================================================================
# CRYSTAL DATA
#----------------------------------------------------------------------
data_VESTA_phase_1

_chemical_name_common                  'Sm8 Co28                              '
_cell_length_a                         5.034368
_cell_length_b                         5.034368
_cell_length_c                         24.410748
_cell_angle_alpha                      90.000000
_cell_angle_beta                       90.000000
_cell_angle_gamma                      120.000000
_cell_volume                           535.798572
_space_group_name_H-M_alt              'P 1'
_space_group_IT_number                 1

loop_
_space_group_symop_operation_xyz
   'x, y, z'

loop_
   _atom_site_label
   _atom_site_occupancy
   _atom_site_fract_x
   _atom_site_fract_y
   _atom_site_fract_z
   _atom_site_adp_type
   _atom_site_U_iso_or_equiv
   _atom_site_type_symbol
   Sm1        1.0     0.666667     0.333333     0.529312    Uiso  ? Sm
   Sm2        1.0     0.333333     0.666667     0.029312    Uiso  ? Sm
   Sm3        1.0     0.333333     0.666667     0.470688    Uiso  ? Sm
   Sm4        1.0     0.666667     0.333333     0.970688    Uiso  ? Sm
   Sm5        1.0     0.666667     0.333333     0.673744    Uiso  ? Sm
   Sm6        1.0     0.333333     0.666667     0.173744    Uiso  ? Sm
   Sm7        1.0     0.333333     0.666667     0.326256    Uiso  ? Sm
   Sm8        1.0     0.666667     0.333333     0.826256    Uiso  ? Sm
   Co1        1.0     0.000000     -0.000000     0.668492    Uiso  ? Co
   Co2        1.0     0.000000     -0.000000     0.168492    Uiso  ? Co
   Co3        1.0     0.000000     -0.000000     0.331508    Uiso  ? Co
   Co4        1.0     0.000000     -0.000000     0.831508    Uiso  ? Co
   Co5        1.0     0.666667     0.333333     0.330015    Uiso  ? Co
   Co6        1.0     0.333333     0.666667     0.830015    Uiso  ? Co
   Co7        1.0     0.333333     0.666667     0.669985    Uiso  ? Co
   Co8        1.0     0.666667     0.333333     0.169985    Uiso  ? Co
   Co9        1.0     0.668392     0.834196     0.750000    Uiso  ? Co
   Co10       1.0     0.834196     0.668392     0.250000    Uiso  ? Co
   Co11       1.0     0.834196     0.165804     0.250000    Uiso  ? Co
   Co12       1.0     0.165804     0.834196     0.750000    Uiso  ? Co
   Co13       1.0     0.165804     0.331608     0.750000    Uiso  ? Co
   Co14       1.0     0.331608     0.165804     0.250000    Uiso  ? Co
   Co15       1.0     0.664648     0.832324     0.589422    Uiso  ? Co
   Co16       1.0     0.167676     0.832324     0.589422    Uiso  ? Co
   Co17       1.0     0.167676     0.335353     0.589422    Uiso  ? Co
   Co18       1.0     0.832324     0.664648     0.089422    Uiso  ? Co
   Co19       1.0     0.832324     0.167676     0.089422    Uiso  ? Co
   Co20       1.0     0.335353     0.167676     0.089422    Uiso  ? Co
   Co21       1.0     0.335353     0.167676     0.410578    Uiso  ? Co
   Co22       1.0     0.832324     0.664648     0.410578    Uiso  ? Co
   Co23       1.0     0.832324     0.167676     0.410578    Uiso  ? Co
   Co24       1.0     0.167676     0.832324     0.910578    Uiso  ? Co
   Co25       1.0     0.664648     0.832324     0.910578    Uiso  ? Co
   Co26       1.0     0.167676     0.335353     0.910578    Uiso  ? Co
   Cr1        1.0     0.000000     -0.000000     0.500000    Uiso  ? Cr
   Cr2        1.0     0.000000     -0.000000     0.000000    Uiso  ? Cr
