
#======================================================================
# CRYSTAL DATA
#----------------------------------------------------------------------
data_VESTA_phase_1

_chemical_name_common                  'Sm8 Co28                              '
_cell_length_a                         5.085277
_cell_length_b                         4.975744
_cell_length_c                         24.463196
_cell_angle_alpha                      90.001442
_cell_angle_beta                       89.998314
_cell_angle_gamma                      119.588951
_cell_volume                           538.270327
_space_group_name_H-M_alt              'P 1'
_space_group_IT_number                 1

loop_
_space_group_symop_operation_xyz
   'x, y, z'

loop_
   _atom_site_label
   _atom_site_occupancy
   _atom_site_fract_x
   _atom_site_fract_y
   _atom_site_fract_z
   _atom_site_adp_type
   _atom_site_U_iso_or_equiv
   _atom_site_type_symbol
   Sm1        1.0     0.666877     0.333168     0.529807    Uiso  ? Sm
   Sm2        1.0     0.332891     0.666305     0.028353    Uiso  ? Sm
   Sm3        1.0     0.332944     0.666356     0.471669    Uiso  ? Sm
   Sm4        1.0     0.666847     0.333129     0.970156    Uiso  ? Sm
   Sm5        1.0     0.666674     0.334135     0.671630    Uiso  ? Sm
   Sm6        1.0     0.333047     0.665544     0.169155    Uiso  ? Sm
   Sm7        1.0     0.333052     0.665544     0.330812    Uiso  ? Sm
   Sm8        1.0     0.666688     0.334144     0.828413    Uiso  ? Sm
   Co1        1.0     0.030331     0.016956     0.667523    Uiso  ? Co
   Co2        1.0     0.969198     0.991420     0.166488    Uiso  ? Co
   Co3        1.0     0.969231     0.991425     0.333490    Uiso  ? Co
   Co4        1.0     0.030534     0.017045     0.832498    Uiso  ? Co
   Co5        1.0     0.698361     0.340620     0.333088    Uiso  ? Co
   Co6        1.0     0.301728     0.651070     0.831643    Uiso  ? Co
   Co7        1.0     0.301846     0.651127     0.668376    Uiso  ? Co
   Co8        1.0     0.698385     0.340599     0.166894    Uiso  ? Co
   Co9        1.0     0.165910     0.834832     0.750007    Uiso  ? Co
   Co10       1.0     0.165830     0.332396     0.750011    Uiso  ? Co
   Co11       1.0     0.833067     0.166304     0.249997    Uiso  ? Co
   Co12       1.0     0.666119     0.833246     0.591712    Uiso  ? Co
   Co13       1.0     0.167919     0.833156     0.587310    Uiso  ? Co
   Co14       1.0     0.168336     0.335868     0.587221    Uiso  ? Co
   Co15       1.0     0.832337     0.664611     0.086681    Uiso  ? Co
   Co16       1.0     0.833092     0.166298     0.085363    Uiso  ? Co
   Co17       1.0     0.332766     0.166214     0.090506    Uiso  ? Co
   Co18       1.0     0.332806     0.166252     0.409494    Uiso  ? Co
   Co19       1.0     0.832361     0.664631     0.413312    Uiso  ? Co
   Co20       1.0     0.833134     0.166361     0.414623    Uiso  ? Co
   Co21       1.0     0.167863     0.833119     0.912699    Uiso  ? Co
   Co22       1.0     0.666079     0.833212     0.908267    Uiso  ? Co
   Co23       1.0     0.168301     0.335843     0.912795    Uiso  ? Co
   Cr1        1.0     0.999143     0.999057     0.501123    Uiso  ? Cr
   Cr2        1.0     0.999103     0.998991     0.998869    Uiso  ? Cr
   Cr3        1.0     0.836556     0.671682     0.249991    Uiso  ? Cr
   Cr4        1.0     0.666467     0.834198     0.750034    Uiso  ? Cr
   Cr5        1.0     0.334177     0.165144     0.249990    Uiso  ? Cr
