
#======================================================================
# CRYSTAL DATA
#----------------------------------------------------------------------
data_VESTA_phase_1

_chemical_name_common                  'Sm8 Co28                              '
_cell_length_a                         5.020829
_cell_length_b                         5.020829
_cell_length_c                         24.321253
_cell_angle_alpha                      90.000000
_cell_angle_beta                       90.000000
_cell_angle_gamma                      120.000000
_cell_volume                           530.966926
_space_group_name_H-M_alt              'P 1'
_space_group_IT_number                 1

loop_
_space_group_symop_operation_xyz
   'x, y, z'

loop_
   _atom_site_label
   _atom_site_occupancy
   _atom_site_fract_x
   _atom_site_fract_y
   _atom_site_fract_z
   _atom_site_adp_type
   _atom_site_U_iso_or_equiv
   _atom_site_type_symbol
   Sm1        1.0     0.666667     0.333333     0.529508    Uiso  ? Sm
   Sm2        1.0     0.333333     0.666667     0.027758    Uiso  ? Sm
   Sm3        1.0     0.333333     0.666667     0.470492    Uiso  ? Sm
   Sm4        1.0     0.666667     0.333333     0.972242    Uiso  ? Sm
   Sm5        1.0     0.666667     0.333333     0.674535    Uiso  ? Sm
   Sm6        1.0     0.333333     0.666667     0.172306    Uiso  ? Sm
   Sm7        1.0     0.333333     0.666667     0.325465    Uiso  ? Sm
   Sm8        1.0     0.666667     0.333333     0.827694    Uiso  ? Sm
   Co1        1.0     0.000000     -0.000000     -0.000000    Uiso  ? Co
   Co2        1.0     0.000000     -0.000000     0.669415    Uiso  ? Co
   Co3        1.0     0.000000     -0.000000     0.167379    Uiso  ? Co
   Co4        1.0     0.000000     -0.000000     0.330585    Uiso  ? Co
   Co5        1.0     0.000000     -0.000000     0.832621    Uiso  ? Co
   Co6        1.0     0.666667     0.333333     0.329475    Uiso  ? Co
   Co7        1.0     0.333333     0.666667     0.832174    Uiso  ? Co
   Co8        1.0     0.333333     0.666667     0.670525    Uiso  ? Co
   Co9        1.0     0.666667     0.333333     0.167826    Uiso  ? Co
   Co10       1.0     0.667989     0.833995     0.751173    Uiso  ? Co
   Co11       1.0     0.833995     0.667989     0.248827    Uiso  ? Co
   Co12       1.0     0.833995     0.166005     0.248827    Uiso  ? Co
   Co13       1.0     0.166005     0.833995     0.751173    Uiso  ? Co
   Co14       1.0     0.166005     0.332011     0.751173    Uiso  ? Co
   Co15       1.0     0.332011     0.166005     0.248827    Uiso  ? Co
   Co16       1.0     0.664891     0.832445     0.589826    Uiso  ? Co
   Co17       1.0     0.167555     0.832445     0.589826    Uiso  ? Co
   Co18       1.0     0.167555     0.335109     0.589826    Uiso  ? Co
   Co19       1.0     0.834049     0.668099     0.087362    Uiso  ? Co
   Co20       1.0     0.834049     0.165951     0.087362    Uiso  ? Co
   Co21       1.0     0.331901     0.165951     0.087362    Uiso  ? Co
   Co22       1.0     0.335109     0.167555     0.410174    Uiso  ? Co
   Co23       1.0     0.832445     0.664891     0.410174    Uiso  ? Co
   Co24       1.0     0.832445     0.167555     0.410174    Uiso  ? Co
   Co25       1.0     0.165951     0.834049     0.912638    Uiso  ? Co
   Co26       1.0     0.668099     0.834049     0.912638    Uiso  ? Co
   Co27       1.0     0.165951     0.331901     0.912638    Uiso  ? Co
   Cr1        1.0     0.000000     -0.000000     0.500000    Uiso  ? Cr
