
#======================================================================
# CRYSTAL DATA
#----------------------------------------------------------------------
data_VESTA_phase_1

_chemical_name_common                  'Sm12 Co42'
_cell_length_a                         5.039962
_cell_length_b                         5.039962
_cell_length_c                         36.328186
_cell_angle_alpha                      90.000000
_cell_angle_beta                       90.000000
_cell_angle_gamma                      120.000000
_cell_volume                           799.150981
_space_group_name_H-M_alt              'P 1'
_space_group_IT_number                 1

loop_
_space_group_symop_operation_xyz
   'x, y, z'

loop_
   _atom_site_label
   _atom_site_occupancy
   _atom_site_fract_x
   _atom_site_fract_y
   _atom_site_fract_z
   _atom_site_adp_type
   _atom_site_U_iso_or_equiv
   _atom_site_type_symbol
   Sm1        1.0     0.000000     0.000000     0.948127    Uiso  ? Sm
   Sm2        1.0     0.333333     0.666667     0.718549    Uiso  ? Sm
   Sm3        1.0     0.666667     0.333333     0.286444    Uiso  ? Sm
   Sm4        1.0     0.000000     0.000000     0.050192    Uiso  ? Sm
   Sm5        1.0     0.333333     0.666667     0.616435    Uiso  ? Sm
   Sm6        1.0     0.666667     0.333333     0.386891    Uiso  ? Sm
   Sm7        1.0     0.000000     0.000000     0.851778    Uiso  ? Sm
   Sm8        1.0     0.333333     0.666667     0.814895    Uiso  ? Sm
   Sm9        1.0     0.666667     0.333333     0.184869    Uiso  ? Sm
   Sm10       1.0     0.000000     0.000000     0.146600    Uiso  ? Sm
   Sm11       1.0     0.333333     0.666667     0.520037    Uiso  ? Sm
   Sm12       1.0     0.666667     0.333333     0.483137    Uiso  ? Sm
   Co1        1.0     0.666667     0.333333     0.833309    Uiso  ? Co
   Co2        1.0     0.333333     0.666667     0.164859    Uiso  ? Co
   Co3        1.0     0.000000     0.000000     0.501087    Uiso  ? Co
   Co4        1.0     0.000000     0.000000     0.721716    Uiso  ? Co
   Co5        1.0     0.333333     0.666667     0.944826    Uiso  ? Co
   Co6        1.0     0.666667     0.333333     0.053293    Uiso  ? Co
   Co7        1.0     0.000000     0.000000     0.276729    Uiso  ? Co
   Co8        1.0     0.333333     0.666667     0.387808    Uiso  ? Co
   Co9        1.0     0.666667     0.333333     0.612917    Uiso  ? Co
   Co10       1.0     0.666667     0.333333     0.945052    Uiso  ? Co
   Co11       1.0     0.666667     0.333333     0.721620    Uiso  ? Co
   Co12       1.0     0.333333     0.666667     0.053140    Uiso  ? Co
   Co13       1.0     0.000000     0.000000     0.613402    Uiso  ? Co
   Co14       1.0     0.000000     0.000000     0.390857    Uiso  ? Co
   Co15       1.0     0.500002     1.000004     0.999115    Uiso  ? Co
   Co16       1.0     0.500002     0.499998     0.999115    Uiso  ? Co
   Co17       1.0    -0.000004     0.499998     0.999115    Uiso  ? Co
   Co18       1.0     0.160672     0.321343     0.335697    Uiso  ? Co
   Co19       1.0     0.160672     0.839328     0.335697    Uiso  ? Co
   Co20       1.0     0.678657     0.839328     0.335697    Uiso  ? Co
   Co21       1.0     0.833219     0.666439     0.667426    Uiso  ? Co
   Co22       1.0     0.833219     0.166781     0.667426    Uiso  ? Co
   Co23       1.0     0.333561     0.166781     0.667426    Uiso  ? Co
   Co24       1.0     0.997571     0.498785     0.891485    Uiso  ? Co
   Co25       1.0     0.501215     0.002430     0.891485    Uiso  ? Co
   Co26       1.0     0.501215     0.498785     0.891485    Uiso  ? Co
   Co27       1.0     0.335423     0.167711     0.775170    Uiso  ? Co
   Co28       1.0     0.832289     0.664577     0.775170    Uiso  ? Co
   Co29       1.0     0.832289     0.167711     0.775170    Uiso  ? Co
   Co30       1.0     0.679564     0.839782     0.220294    Uiso  ? Co
   Co31       1.0     0.160218     0.320436     0.220294    Uiso  ? Co
   Co32       1.0     0.160218     0.839782     0.220294    Uiso  ? Co
   Co33       1.0     0.001479     0.500740     0.106712    Uiso  ? Co
   Co34       1.0     0.499260     0.998521     0.106712    Uiso  ? Co
   Co35       1.0     0.499260     0.500740     0.106712    Uiso  ? Co
   Co36       1.0     0.330299     0.165149     0.559674    Uiso  ? Co
   Co37       1.0     0.834851     0.669702     0.559674    Uiso  ? Co
   Co38       1.0     0.834851     0.165149     0.559674    Uiso  ? Co
   Co39       1.0     0.665422     0.832711     0.443171    Uiso  ? Co
   Co40       1.0     0.167289     0.334578     0.443171    Uiso  ? Co
   Co41       1.0     0.167289     0.832711     0.443171    Uiso  ? Co
   Zr1        1.0     0.333333     0.666667     0.275201    Uiso  ? Zr
