
#======================================================================
# CRYSTAL DATA
#----------------------------------------------------------------------
data_VESTA_phase_1

_chemical_name_common                  'Sm12 Co42'
_cell_length_a                         5.050819
_cell_length_b                         5.050819
_cell_length_c                         36.372776
_cell_angle_alpha                      90.000000
_cell_angle_beta                       90.000000
_cell_angle_gamma                      120.000000
_cell_volume                           803.583035
_space_group_name_H-M_alt              'P 1'
_space_group_IT_number                 1

loop_
_space_group_symop_operation_xyz
   'x, y, z'

loop_
   _atom_site_label
   _atom_site_occupancy
   _atom_site_fract_x
   _atom_site_fract_y
   _atom_site_fract_z
   _atom_site_adp_type
   _atom_site_U_iso_or_equiv
   _atom_site_type_symbol
   Sm1        1.0     0.000000     0.000000     0.946409    Uiso  ? Sm
   Sm2        1.0     0.333333     0.666667     0.717612    Uiso  ? Sm
   Sm3        1.0     0.666667     0.333333     0.285361    Uiso  ? Sm
   Sm4        1.0     0.000000     0.000000     0.047972    Uiso  ? Sm
   Sm5        1.0     0.333333     0.666667     0.615721    Uiso  ? Sm
   Sm6        1.0     0.666667     0.333333     0.386924    Uiso  ? Sm
   Sm7        1.0     0.000000     0.000000     0.850456    Uiso  ? Sm
   Sm8        1.0     0.333333     0.666667     0.813842    Uiso  ? Sm
   Sm9        1.0     0.666667     0.333333     0.190495    Uiso  ? Sm
   Sm10       1.0     0.000000     0.000000     0.142839    Uiso  ? Sm
   Sm11       1.0     0.333333     0.666667     0.519491    Uiso  ? Sm
   Sm12       1.0     0.666667     0.333333     0.482877    Uiso  ? Sm
   Co1        1.0     0.666667     0.333333     0.831780    Uiso  ? Co
   Co2        1.0     0.000000     0.000000     0.501554    Uiso  ? Co
   Co3        1.0     0.000000     0.000000     0.720729    Uiso  ? Co
   Co4        1.0     0.333333     0.666667     0.942802    Uiso  ? Co
   Co5        1.0     0.666667     0.333333     0.050171    Uiso  ? Co
   Co6        1.0     0.000000     0.000000     0.283163    Uiso  ? Co
   Co7        1.0     0.333333     0.666667     0.390531    Uiso  ? Co
   Co8        1.0     0.666667     0.333333     0.612605    Uiso  ? Co
   Co9        1.0     0.666667     0.333333     0.943769    Uiso  ? Co
   Co10       1.0     0.666667     0.333333     0.720659    Uiso  ? Co
   Co11       1.0     0.333333     0.666667     0.280856    Uiso  ? Co
   Co12       1.0     0.333333     0.666667     0.052478    Uiso  ? Co
   Co13       1.0     0.000000     0.000000     0.612674    Uiso  ? Co
   Co14       1.0     0.000000     0.000000     0.389565    Uiso  ? Co
   Co15       1.0     0.498972    -0.002056    -0.002603    Uiso  ? Co
   Co16       1.0     0.498972     0.501028    -0.002603    Uiso  ? Co
   Co17       1.0     0.002056     0.501028    -0.002603    Uiso  ? Co
   Co18       1.0     0.167695     0.335389     0.335936    Uiso  ? Co
   Co19       1.0     0.167695     0.832305     0.335936    Uiso  ? Co
   Co20       1.0     0.664611     0.832305     0.335936    Uiso  ? Co
   Co21       1.0     0.833333     0.666667     0.666667    Uiso  ? Co
   Co22       1.0     0.833333     0.166667     0.666667    Uiso  ? Co
   Co23       1.0     0.333333     0.166667     0.666667    Uiso  ? Co
   Co24       1.0     0.996330     0.498165     0.889969    Uiso  ? Co
   Co25       1.0     0.501835     0.003670     0.889969    Uiso  ? Co
   Co26       1.0     0.501835     0.498165     0.889969    Uiso  ? Co
   Co27       1.0     0.335049     0.167525     0.774081    Uiso  ? Co
   Co28       1.0     0.832475     0.664951     0.774081    Uiso  ? Co
   Co29       1.0     0.832475     0.167525     0.774081    Uiso  ? Co
   Co30       1.0     0.675257     0.837629     0.228441    Uiso  ? Co
   Co31       1.0     0.162371     0.324743     0.228441    Uiso  ? Co
   Co32       1.0     0.162371     0.837629     0.228441    Uiso  ? Co
   Co33       1.0    -0.008590     0.495705     0.104893    Uiso  ? Co
   Co34       1.0     0.504295     0.008590     0.104893    Uiso  ? Co
   Co35       1.0     0.504295     0.495705     0.104893    Uiso  ? Co
   Co36       1.0     0.331617     0.165809     0.559252    Uiso  ? Co
   Co37       1.0     0.834191     0.668383     0.559252    Uiso  ? Co
   Co38       1.0     0.834191     0.165809     0.559252    Uiso  ? Co
   Co39       1.0     0.670337     0.835169     0.443364    Uiso  ? Co
   Co40       1.0     0.164832     0.329663     0.443364    Uiso  ? Co
   Co41       1.0     0.164832     0.835169     0.443364    Uiso  ? Co
   Zr1        1.0     0.333333     0.666667     0.166667    Uiso  ? Zr
