
#======================================================================
# CRYSTAL DATA
#----------------------------------------------------------------------
data_VESTA_phase_1

_chemical_name_common                  'Sm12 Co42'
_cell_length_a                         5.050514
_cell_length_b                         4.988777
_cell_length_c                         36.516991
_cell_angle_alpha                      90.000000
_cell_angle_beta                       90.000000
_cell_angle_gamma                      120.000000
_cell_volume                           796.810914
_space_group_name_H-M_alt              'P 1'
_space_group_IT_number                 1

loop_
_space_group_symop_operation_xyz
   'x, y, z'

loop_
   _atom_site_label
   _atom_site_occupancy
   _atom_site_fract_x
   _atom_site_fract_y
   _atom_site_fract_z
   _atom_site_adp_type
   _atom_site_U_iso_or_equiv
   _atom_site_type_symbol
   Sm1        1.0     0.999651     0.999826     0.947910    Uiso  ? Sm
   Sm2        1.0     0.333682     0.666841     0.718756    Uiso  ? Sm
   Sm3        1.0     0.665698     0.332849     0.275223    Uiso  ? Sm
   Sm4        1.0     0.000341     0.000170     0.049721    Uiso  ? Sm
   Sm5        1.0     0.332992     0.666496     0.616946    Uiso  ? Sm
   Sm6        1.0     0.667635     0.333818     0.391443    Uiso  ? Sm
   Sm7        1.0     0.999374     0.999687     0.851784    Uiso  ? Sm
   Sm8        1.0     0.333959     0.666980     0.814883    Uiso  ? Sm
   Sm9        1.0     0.663475     0.331738     0.182114    Uiso  ? Sm
   Sm10       1.0     0.997715     0.998857     0.145766    Uiso  ? Sm
   Sm11       1.0     0.335618     0.667809     0.520901    Uiso  ? Sm
   Sm12       1.0     0.669858     0.334929     0.484552    Uiso  ? Sm
   Co1        1.0     0.666667     0.333333     0.833333    Uiso  ? Co
   Co2        1.0     0.331041     0.665520     0.163990    Uiso  ? Co
   Co3        1.0     0.002293     0.001146     0.502676    Uiso  ? Co
   Co4        1.0     0.991837     0.995918     0.721981    Uiso  ? Co
   Co5        1.0     0.341496     0.670748     0.944686    Uiso  ? Co
   Co6        1.0     0.659521     0.329760     0.052875    Uiso  ? Co
   Co7        1.0     0.047203     0.023602     0.275436    Uiso  ? Co
   Co8        1.0     0.286130     0.643065     0.391231    Uiso  ? Co
   Co9        1.0     0.673812     0.336906     0.613792    Uiso  ? Co
   Co10       1.0     0.658126     0.329063     0.944848    Uiso  ? Co
   Co11       1.0     0.675208     0.337604     0.721818    Uiso  ? Co
   Co12       1.0     0.284204     0.642102     0.275733    Uiso  ? Co
   Co13       1.0     0.341258     0.670629     0.052761    Uiso  ? Co
   Co14       1.0     0.992075     0.996038     0.613905    Uiso  ? Co
   Co15       1.0     0.049130     0.024565     0.390934    Uiso  ? Co
   Co16       1.0     0.500038     0.000083     0.998821    Uiso  ? Co
   Co17       1.0     0.500038     0.499954     0.998821    Uiso  ? Co
   Co18       1.0     0.000261     0.500131     0.998786    Uiso  ? Co
   Co19       1.0     0.166667     0.333333     0.333333    Uiso  ? Co
   Co20       1.0     0.166667     0.833333     0.333333    Uiso  ? Co
   Co21       1.0     0.833296     0.666583     0.667846    Uiso  ? Co
   Co22       1.0     0.833296     0.166712     0.667846    Uiso  ? Co
   Co23       1.0     0.333072     0.166536     0.667881    Uiso  ? Co
   Co24       1.0     0.998016     0.499008     0.892012    Uiso  ? Co
   Co25       1.0     0.501203     0.002299     0.891153    Uiso  ? Co
   Co26       1.0     0.501203     0.498904     0.891153    Uiso  ? Co
   Co27       1.0     0.335317     0.167658     0.774654    Uiso  ? Co
   Co28       1.0     0.832130     0.664367     0.775514    Uiso  ? Co
   Co29       1.0     0.832130     0.167763     0.775514    Uiso  ? Co
   Co30       1.0     0.667248     0.833624     0.224820    Uiso  ? Co
   Co31       1.0     0.168624     0.337840     0.221191    Uiso  ? Co
   Co32       1.0     0.168624     0.830784     0.221191    Uiso  ? Co
   Co33       1.0     0.001241     0.500621     0.105576    Uiso  ? Co
   Co34       1.0     0.496972     0.997160     0.106381    Uiso  ? Co
   Co35       1.0     0.496972     0.499812     0.106381    Uiso  ? Co
   Co36       1.0     0.332092     0.166046     0.561091    Uiso  ? Co
   Co37       1.0     0.836361     0.669507     0.560285    Uiso  ? Co
   Co38       1.0     0.836361     0.166854     0.560285    Uiso  ? Co
   Co39       1.0     0.666086     0.833043     0.441847    Uiso  ? Co
   Co40       1.0     0.164709     0.328826     0.445476    Uiso  ? Co
   Co41       1.0     0.164709     0.835883     0.445476    Uiso  ? Co
   Zr1        1.0     0.666667     0.833333     0.333333    Uiso  ? Zr
