
#======================================================================
# CRYSTAL DATA
#----------------------------------------------------------------------
data_VESTA_phase_1

_chemical_name_common                  'Sm12 Co42'
_cell_length_a                         5.026223
_cell_length_b                         5.019417
_cell_length_c                         36.524540
_cell_angle_alpha                      90.000000
_cell_angle_beta                       90.000000
_cell_angle_gamma                      119.835052
_cell_volume                           799.336912
_space_group_name_H-M_alt              'P 1'
_space_group_IT_number                 1

loop_
_space_group_symop_operation_xyz
   'x, y, z'

loop_
   _atom_site_label
   _atom_site_occupancy
   _atom_site_fract_x
   _atom_site_fract_y
   _atom_site_fract_z
   _atom_site_adp_type
   _atom_site_U_iso_or_equiv
   _atom_site_type_symbol
   Sm1        1.0    -0.000460     0.000247     0.948808    Uiso  ? Sm
   Sm2        1.0     0.333802     0.666231     0.720239    Uiso  ? Sm
   Sm3        1.0     0.667529     0.333592     0.278597    Uiso  ? Sm
   Sm4        1.0     0.000071    -0.000053     0.050448    Uiso  ? Sm
   Sm5        1.0     0.334394     0.665351     0.618719    Uiso  ? Sm
   Sm6        1.0     0.665727     0.334522     0.378843    Uiso  ? Sm
   Sm7        1.0    -0.000391     0.000215     0.852880    Uiso  ? Sm
   Sm8        1.0     0.333388     0.666577     0.816110    Uiso  ? Sm
   Sm9        1.0     0.665593     0.332888     0.183059    Uiso  ? Sm
   Sm10       1.0    -0.000745    -0.000446     0.146403    Uiso  ? Sm
   Sm11       1.0     0.334427     0.665217     0.522914    Uiso  ? Sm
   Sm12       1.0     0.662122     0.338029     0.487762    Uiso  ? Sm
   Co1        1.0     0.666490     0.333320     0.834484    Uiso  ? Co
   Co2        1.0     0.332691     0.665829     0.164643    Uiso  ? Co
   Co3        1.0    -0.001323     0.001164     0.502917    Uiso  ? Co
   Co4        1.0    -0.003446     0.000999     0.723241    Uiso  ? Co
   Co5        1.0     0.337083     0.668139     0.945585    Uiso  ? Co
   Co6        1.0     0.664914     0.337616     0.053591    Uiso  ? Co
   Co7        1.0     0.022574    -0.007981     0.276022    Uiso  ? Co
   Co8        1.0     0.362517     0.640082     0.383147    Uiso  ? Co
   Co9        1.0     0.669647     0.329134     0.614628    Uiso  ? Co
   Co10       1.0     0.662223     0.332430     0.945718    Uiso  ? Co
   Co11       1.0     0.671300     0.331376     0.723502    Uiso  ? Co
   Co12       1.0     0.313547     0.675531     0.276059    Uiso  ? Co
   Co13       1.0     0.334771     0.662516     0.053470    Uiso  ? Co
   Co14       1.0    -0.000509     0.001272     0.616275    Uiso  ? Co
   Co15       1.0     0.970170     0.028283     0.383156    Uiso  ? Co
   Co16       1.0     0.499854    -0.000239    -0.000207    Uiso  ? Co
   Co17       1.0     0.499880     0.499988    -0.000506    Uiso  ? Co
   Co18       1.0    -0.000180     0.499929    -0.000502    Uiso  ? Co
   Co19       1.0     0.166761     0.333331     0.328335    Uiso  ? Co
   Co20       1.0     0.166801     0.833403     0.333408    Uiso  ? Co
   Co21       1.0     0.667005     0.833537     0.327815    Uiso  ? Co
   Co22       1.0     0.833447     0.665092     0.669367    Uiso  ? Co
   Co23       1.0     0.833105     0.166667     0.669441    Uiso  ? Co
   Co24       1.0     0.334776     0.166549     0.669503    Uiso  ? Co
   Co25       1.0     0.997551     0.499292     0.892601    Uiso  ? Co
   Co26       1.0     0.500807     0.002515     0.892360    Uiso  ? Co
   Co27       1.0     0.500826     0.499363     0.892189    Uiso  ? Co
   Co28       1.0     0.334982     0.167366     0.776327    Uiso  ? Co
   Co29       1.0     0.832478     0.664918     0.776487    Uiso  ? Co
   Co30       1.0     0.832454     0.167385     0.776907    Uiso  ? Co
   Co31       1.0     0.666542     0.832543     0.223659    Uiso  ? Co
   Co32       1.0     0.167761     0.334460     0.223150    Uiso  ? Co
   Co33       1.0     0.168780     0.830447     0.221307    Uiso  ? Co
   Co34       1.0     0.001794     0.501148     0.106668    Uiso  ? Co
   Co35       1.0     0.498848     0.998516     0.106584    Uiso  ? Co
   Co36       1.0     0.498457     0.501035     0.107089    Uiso  ? Co
   Co37       1.0     0.329326     0.161209     0.562493    Uiso  ? Co
   Co38       1.0     0.838451     0.670488     0.562490    Uiso  ? Co
   Co39       1.0     0.838878     0.160734     0.562131    Uiso  ? Co
   Co40       1.0     0.667865     0.841495     0.441067    Uiso  ? Co
   Co41       1.0     0.158846     0.332456     0.440986    Uiso  ? Co
   Zr1        1.0     0.165799     0.834293     0.437630    Uiso  ? Zr
