
#======================================================================
# CRYSTAL DATA
#----------------------------------------------------------------------
data_VESTA_phase_1

_chemical_name_common                  'Sm12 Co42                             '
_cell_length_a                         5.013882
_cell_length_b                         5.013787
_cell_length_c                         36.732960
_cell_angle_alpha                      90.001717
_cell_angle_beta                       89.998222
_cell_angle_gamma                      119.633675
_cell_volume                           802.634568
_space_group_name_H-M_alt              'P 1'
_space_group_IT_number                 1

loop_
_space_group_symop_operation_xyz
   'x, y, z'

loop_
   _atom_site_label
   _atom_site_occupancy
   _atom_site_fract_x
   _atom_site_fract_y
   _atom_site_fract_z
   _atom_site_adp_type
   _atom_site_U_iso_or_equiv
   _atom_site_type_symbol
   Sm1        1.0    -0.000056     0.000042     0.946500    Uiso  ? Sm
   Sm2        1.0     0.333378     0.666604     0.720249    Uiso  ? Sm
   Sm3        1.0     0.666604     0.333451     0.280868    Uiso  ? Sm
   Sm4        1.0    -0.000106     0.000108     0.054439    Uiso  ? Sm
   Sm5        1.0     0.333455     0.666613     0.612228    Uiso  ? Sm
   Sm6        1.0     0.666649     0.333237     0.385707    Uiso  ? Sm
   Sm7        1.0     0.999775     0.000153     0.851499    Uiso  ? Sm
   Sm8        1.0     0.333456     0.666487     0.815303    Uiso  ? Sm
   Sm9        1.0     0.665817     0.334193     0.185735    Uiso  ? Sm
   Sm10       1.0     0.999438     0.000604     0.149450    Uiso  ? Sm
   Sm11       1.0     0.334041     0.666064     0.517175    Uiso  ? Sm
   Sm12       1.0     0.667606     0.332471     0.480869    Uiso  ? Sm
   Co1        1.0     0.666598     0.333344     0.833353    Uiso  ? Co
   Co2        1.0     0.332577     0.667457     0.167718    Uiso  ? Co
   Co3        1.0     0.001021     0.999093     0.498901    Uiso  ? Co
   Co4        1.0     0.999265     0.000701     0.723336    Uiso  ? Co
   Co5        1.0     0.334089     0.665903     0.943365    Uiso  ? Co
   Co6        1.0     0.665900     0.334098     0.057609    Uiso  ? Co
   Co7        1.0     0.009080     0.990505     0.277920    Uiso  ? Co
   Co8        1.0     0.323525     0.675732     0.388656    Uiso  ? Co
   Co9        1.0     0.667456     0.332629     0.609065    Uiso  ? Co
   Co10       1.0     0.665790     0.334194     0.943807    Uiso  ? Co
   Co11       1.0     0.667576     0.332419     0.722978    Uiso  ? Co
   Co12       1.0     0.324129     0.676490     0.278286    Uiso  ? Co
   Co13       1.0     0.333964     0.666062     0.057182    Uiso  ? Co
   Co14       1.0    -0.000561     0.000620     0.609516    Uiso  ? Co
   Co15       1.0     0.009839     0.990593     0.388276    Uiso  ? Co
   Co16       1.0     0.166620     0.833345     0.333280    Uiso  ? Co
   Co17       1.0     0.996480     0.498341     0.891738    Uiso  ? Co
   Co18       1.0     0.501612     0.003496     0.891739    Uiso  ? Co
   Co19       1.0     0.501842     0.498098     0.891526    Uiso  ? Co
   Co20       1.0     0.336768     0.168243     0.775037    Uiso  ? Co
   Co21       1.0     0.831728     0.663205     0.775038    Uiso  ? Co
   Co22       1.0     0.831708     0.168242     0.775246    Uiso  ? Co
   Co23       1.0     0.663945     0.832196     0.226091    Uiso  ? Co
   Co24       1.0     0.167789     0.336023     0.226109    Uiso  ? Co
   Co25       1.0     0.168577     0.831386     0.224752    Uiso  ? Co
   Co26       1.0     0.003200     0.502195     0.109275    Uiso  ? Co
   Co27       1.0     0.497822     0.996812     0.109276    Uiso  ? Co
   Co28       1.0     0.497960     0.502079     0.109479    Uiso  ? Co
   Co29       1.0     0.330124     0.164418     0.557390    Uiso  ? Co
   Co30       1.0     0.835668     0.669948     0.557387    Uiso  ? Co
   Co31       1.0     0.835432     0.164706     0.557198    Uiso  ? Co
   Co32       1.0     0.669190     0.834394     0.440449    Uiso  ? Co
   Co33       1.0     0.165546     0.330717     0.440480    Uiso  ? Co
   Co34       1.0     0.164499     0.835476     0.441845    Uiso  ? Co
   Cu1        1.0     0.666604     0.833324     0.333299    Uiso  ? Cu
   Cu2        1.0     0.499941     0.500061     0.000488    Uiso  ? Cu
   Cu3        1.0     0.833350     0.666603     0.666238    Uiso  ? Cu
   Cu4        1.0     0.333418     0.166672     0.666238    Uiso  ? Cu
   Cu5        1.0     0.833352     0.166672     0.666215    Uiso  ? Cu
   Cu6        1.0     0.499927     0.000045     0.000472    Uiso  ? Cu
   Cu7        1.0    -0.000042     0.500075     0.000472    Uiso  ? Cu
   Cu8        1.0     0.166636     0.333358     0.333252    Uiso  ? Cu
