
#======================================================================
# CRYSTAL DATA
#----------------------------------------------------------------------
data_VESTA_phase_1

_chemical_name_common                  'Sm12 Co42                             '
_cell_length_a                         5.069513
_cell_length_b                         5.003634
_cell_length_c                         36.512428
_cell_angle_alpha                      90.042030
_cell_angle_beta                       90.000000
_cell_angle_gamma                      120.436501
_cell_volume                           798.538514
_space_group_name_H-M_alt              'P 1'
_space_group_IT_number                 1

loop_
_space_group_symop_operation_xyz
   'x, y, z'

loop_
   _atom_site_label
   _atom_site_occupancy
   _atom_site_fract_x
   _atom_site_fract_y
   _atom_site_fract_z
   _atom_site_adp_type
   _atom_site_U_iso_or_equiv
   _atom_site_type_symbol
   Sm1        1.0    -0.000514    -0.000537     0.948698    Uiso  ? Sm
   Sm2        1.0     0.333568     0.667094     0.720945    Uiso  ? Sm
   Sm3        1.0     0.666732     0.333053     0.281111    Uiso  ? Sm
   Sm4        1.0     0.000346     0.000281     0.052222    Uiso  ? Sm
   Sm5        1.0     0.333140     0.666239     0.612388    Uiso  ? Sm
   Sm6        1.0     0.666690     0.333870     0.384635    Uiso  ? Sm
   Sm7        1.0     0.000080    -0.001192     0.852853    Uiso  ? Sm
   Sm8        1.0     0.334752     0.666525     0.816321    Uiso  ? Sm
   Sm9        1.0     0.664210     0.333115     0.185124    Uiso  ? Sm
   Sm10       1.0    -0.002239     0.000218     0.148209    Uiso  ? Sm
   Sm11       1.0     0.334893     0.666808     0.517013    Uiso  ? Sm
   Sm12       1.0     0.667938     0.334525     0.480480    Uiso  ? Sm
   Co1        1.0     0.667929     0.332624     0.834927    Uiso  ? Co
   Co2        1.0     0.329577     0.666667     0.166667    Uiso  ? Co
   Co3        1.0     0.001972     0.000710     0.498406    Uiso  ? Co
   Co4        1.0    -0.001676    -0.003223     0.724029    Uiso  ? Co
   Co5        1.0     0.322096     0.683940     0.945745    Uiso  ? Co
   Co6        1.0     0.677952     0.315338     0.055256    Uiso  ? Co
   Co7        1.0     0.029281     0.017995     0.278078    Uiso  ? Co
   Co8        1.0     0.304823     0.649393     0.387589    Uiso  ? Co
   Co9        1.0     0.668214     0.336557     0.609304    Uiso  ? Co
   Co10       1.0     0.676772     0.314807     0.945991    Uiso  ? Co
   Co11       1.0     0.669027     0.337565     0.723609    Uiso  ? Co
   Co12       1.0     0.303780     0.647838     0.278404    Uiso  ? Co
   Co13       1.0     0.322608     0.685495     0.054930    Uiso  ? Co
   Co14       1.0    -0.001871    -0.004232     0.609725    Uiso  ? Co
   Co15       1.0     0.028631     0.018526     0.387342    Uiso  ? Co
   Co16       1.0     0.500040    -0.000010     0.000423    Uiso  ? Co
   Co17       1.0    -0.000133     0.499923     0.000433    Uiso  ? Co
   Co18       1.0     0.166717     0.333343     0.332910    Uiso  ? Co
   Co19       1.0     0.166611     0.833411     0.332900    Uiso  ? Co
   Co20       1.0     0.996666     0.499319     0.892455    Uiso  ? Co
   Co21       1.0     0.500408     0.003769     0.891888    Uiso  ? Co
   Co22       1.0     0.500150     0.498852     0.894069    Uiso  ? Co
   Co23       1.0     0.337204     0.168093     0.775867    Uiso  ? Co
   Co24       1.0     0.832332     0.662984     0.776343    Uiso  ? Co
   Co25       1.0     0.831674     0.168977     0.775890    Uiso  ? Co
   Co26       1.0     0.665815     0.833362     0.226425    Uiso  ? Co
   Co27       1.0     0.169131     0.337367     0.224144    Uiso  ? Co
   Co28       1.0     0.169855     0.832583     0.224741    Uiso  ? Co
   Co29       1.0     0.003939     0.500751     0.108592    Uiso  ? Co
   Co30       1.0     0.498431     0.995966     0.109190    Uiso  ? Co
   Co31       1.0     0.499120     0.499972     0.106908    Uiso  ? Co
   Co32       1.0     0.329363     0.164356     0.557444    Uiso  ? Co
   Co33       1.0     0.836015     0.670349     0.556990    Uiso  ? Co
   Co34       1.0     0.835778     0.165241     0.557466    Uiso  ? Co
   Co35       1.0     0.667964     0.834481     0.439265    Uiso  ? Co
   Co36       1.0     0.163306     0.329565     0.441445    Uiso  ? Co
   Co37       1.0     0.164014     0.834015     0.440878    Uiso  ? Co
   Cu1        1.0     0.666707     0.833460     0.332842    Uiso  ? Cu
   Cu2        1.0     0.499913     0.499873     0.000492    Uiso  ? Cu
   Cu3        1.0     0.833432     0.666667     0.666667    Uiso  ? Cu
   Cu4        1.0     0.333422     0.166672     0.666678    Uiso  ? Cu
   Cu5        1.0     0.833417     0.166661     0.666656    Uiso  ? Cu
