
#======================================================================
# CRYSTAL DATA
#----------------------------------------------------------------------
data_VESTA_phase_1

_chemical_name_common                  'Sm12 Co42'
_cell_length_a                         5.032018
_cell_length_b                         5.029472
_cell_length_c                         36.264046
_cell_angle_alpha                      90.000000
_cell_angle_beta                       90.000000
_cell_angle_gamma                      120.015854
_cell_volume                           794.697906
_space_group_name_H-M_alt              'P 1'
_space_group_IT_number                 1

loop_
_space_group_symop_operation_xyz
   'x, y, z'

loop_
   _atom_site_label
   _atom_site_occupancy
   _atom_site_fract_x
   _atom_site_fract_y
   _atom_site_fract_z
   _atom_site_adp_type
   _atom_site_U_iso_or_equiv
   _atom_site_type_symbol
   Sm1        1.0     0.999632     0.999891     0.948036    Uiso  ? Sm
   Sm2        1.0     0.333658     0.666537     0.718623    Uiso  ? Sm
   Sm3        1.0     0.666573     0.333599     0.281450    Uiso  ? Sm
   Sm4        1.0    -0.000121    -0.000265     0.051860    Uiso  ? Sm
   Sm5        1.0     0.333618     0.666441     0.614758    Uiso  ? Sm
   Sm6        1.0     0.666295     0.333599     0.385287    Uiso  ? Sm
   Sm7        1.0    -0.000243     0.997621     0.851784    Uiso  ? Sm
   Sm8        1.0     0.334137     0.664640     0.814893    Uiso  ? Sm
   Sm9        1.0     0.664783     0.333940     0.185098    Uiso  ? Sm
   Sm10       1.0     0.997478    -0.000668     0.148184    Uiso  ? Sm
   Sm11       1.0     0.336209     0.668970     0.518467    Uiso  ? Sm
   Sm12       1.0     0.668881     0.336079     0.481571    Uiso  ? Sm
   Co1        1.0     0.667007     0.329802     0.833353    Uiso  ? Co
   Co2        1.0     0.329834     0.666729     0.166639    Uiso  ? Co
   Co3        1.0     0.003949     0.003934     0.500029    Uiso  ? Co
   Co4        1.0     0.012915     0.026902     0.721688    Uiso  ? Co
   Co5        1.0     0.320730     0.681435     0.944967    Uiso  ? Co
   Co6        1.0     0.679816     0.319211     0.054937    Uiso  ? Co
   Co7        1.0     0.026899     0.013956     0.278388    Uiso  ? Co
   Co8        1.0     0.305778     0.652391     0.388395    Uiso  ? Co
   Co9        1.0     0.652580     0.306304     0.611675    Uiso  ? Co
   Co10       1.0     0.678627     0.318162     0.945336    Uiso  ? Co
   Co11       1.0     0.654184     0.305707     0.721339    Uiso  ? Co
   Co12       1.0     0.305814     0.652971     0.278741    Uiso  ? Co
   Co13       1.0     0.319801     0.680444     0.054559    Uiso  ? Co
   Co14       1.0     0.014787     0.026866     0.612033    Uiso  ? Co
   Co15       1.0     0.027054     0.015039     0.388005    Uiso  ? Co
   Co16       1.0     0.499672     0.999689     0.999986    Uiso  ? Co
   Co17       1.0     0.999648     0.499750     0.999893    Uiso  ? Co
   Co18       1.0     0.166481     0.333717     0.333364    Uiso  ? Co
   Co19       1.0     0.166391     0.833669     0.333444    Uiso  ? Co
   Co20       1.0     0.833730     0.166434     0.666566    Uiso  ? Co
   Co21       1.0     0.333741     0.166536     0.666762    Uiso  ? Co
   Co22       1.0     0.996264     0.498727     0.891330    Uiso  ? Co
   Co23       1.0     0.500815     0.004255     0.891155    Uiso  ? Co
   Co24       1.0     0.499959     0.499140     0.893024    Uiso  ? Co
   Co25       1.0     0.337031     0.168697     0.775364    Uiso  ? Co
   Co26       1.0     0.833617     0.665393     0.773669    Uiso  ? Co
   Co27       1.0     0.832973     0.169868     0.775487    Uiso  ? Co
   Co28       1.0     0.665439     0.833624     0.226397    Uiso  ? Co
   Co29       1.0     0.169062     0.337268     0.224584    Uiso  ? Co
   Co30       1.0     0.170052     0.833112     0.224622    Uiso  ? Co
   Co31       1.0     0.003762     0.500139     0.108659    Uiso  ? Co
   Co32       1.0     0.498311     0.995815     0.108705    Uiso  ? Co
   Co33       1.0     0.498595     0.499587     0.106921    Uiso  ? Co
   Co34       1.0     0.329488     0.163420     0.557860    Uiso  ? Co
   Co35       1.0     0.834697     0.667756     0.559697    Uiso  ? Co
   Co36       1.0     0.835029     0.164642     0.557995    Uiso  ? Co
   Co37       1.0     0.667542     0.834602     0.440284    Uiso  ? Co
   Co38       1.0     0.163081     0.329148     0.442200    Uiso  ? Co
   Co39       1.0     0.164235     0.834853     0.442067    Uiso  ? Co
   Cu1        1.0     0.666375     0.833650     0.333374    Uiso  ? Cu
   Cu2        1.0     0.499688     0.499759     0.999948    Uiso  ? Cu
   Cu3        1.0     0.833752     0.666473     0.666711    Uiso  ? Cu
