
#======================================================================
# CRYSTAL DATA
#----------------------------------------------------------------------
data_VESTA_phase_1

_chemical_name_common                  'Sm12 Co42                             '
_cell_length_a                         5.035537
_cell_length_b                         5.004316
_cell_length_c                         36.557442
_cell_angle_alpha                      90.000000
_cell_angle_beta                       90.049507
_cell_angle_gamma                      119.795113
_cell_volume                           799.446924
_space_group_name_H-M_alt              'P 1'
_space_group_IT_number                 1

loop_
_space_group_symop_operation_xyz
   'x, y, z'

loop_
   _atom_site_label
   _atom_site_occupancy
   _atom_site_fract_x
   _atom_site_fract_y
   _atom_site_fract_z
   _atom_site_adp_type
   _atom_site_U_iso_or_equiv
   _atom_site_type_symbol
   Sm1        1.0     0.999104     0.999552     0.947969    Uiso  ? Sm
   Sm2        1.0     0.333395     0.666698     0.720743    Uiso  ? Sm
   Sm3        1.0     0.666362     0.333181     0.281254    Uiso  ? Sm
   Sm4        1.0     0.000748     0.000374     0.053226    Uiso  ? Sm
   Sm5        1.0     0.333261     0.666630     0.612182    Uiso  ? Sm
   Sm6        1.0     0.666938     0.333469     0.384600    Uiso  ? Sm
   Sm7        1.0     0.000919     0.000459     0.852508    Uiso  ? Sm
   Sm8        1.0     0.335037     0.667518     0.816087    Uiso  ? Sm
   Sm9        1.0     0.663618     0.331809     0.185420    Uiso  ? Sm
   Sm10       1.0     0.996576     0.998288     0.148731    Uiso  ? Sm
   Sm11       1.0     0.335523     0.667762     0.516892    Uiso  ? Sm
   Sm12       1.0     0.668498     0.334249     0.480320    Uiso  ? Sm
   Co1        1.0     0.668691     0.334345     0.834503    Uiso  ? Co
   Co2        1.0     0.328558     0.664279     0.167233    Uiso  ? Co
   Co3        1.0     0.002841     0.001420     0.498272    Uiso  ? Co
   Co4        1.0     0.997932     0.998966     0.723830    Uiso  ? Co
   Co5        1.0     0.315706     0.657853     0.945118    Uiso  ? Co
   Co6        1.0     0.684994     0.342497     0.056190    Uiso  ? Co
   Co7        1.0     0.028770     0.014385     0.278234    Uiso  ? Co
   Co8        1.0     0.305081     0.652541     0.387547    Uiso  ? Co
   Co9        1.0     0.668040     0.334020     0.609110    Uiso  ? Co
   Co10       1.0     0.682104     0.341052     0.945341    Uiso  ? Co
   Co11       1.0     0.668884     0.334442     0.723459    Uiso  ? Co
   Co12       1.0     0.303473     0.651737     0.278538    Uiso  ? Co
   Co13       1.0     0.316594     0.658297     0.055839    Uiso  ? Co
   Co14       1.0     0.998615     0.999308     0.609553    Uiso  ? Co
   Co15       1.0     0.028936     0.014468     0.387266    Uiso  ? Co
   Co16       1.0    -0.000020     0.499990     0.000584    Uiso  ? Co
   Co17       1.0     0.166710     0.333351     0.332935    Uiso  ? Co
   Co18       1.0     0.166710     0.833359     0.332935    Uiso  ? Co
   Co19       1.0     0.995917     0.497958     0.891858    Uiso  ? Co
   Co20       1.0     0.500654     0.002597     0.892950    Uiso  ? Co
   Co21       1.0     0.500654     0.498057     0.892950    Uiso  ? Co
   Co22       1.0     0.337200     0.168600     0.775667    Uiso  ? Co
   Co23       1.0     0.832062     0.663059     0.775890    Uiso  ? Co
   Co24       1.0     0.832062     0.169003     0.775890    Uiso  ? Co
   Co25       1.0     0.664591     0.832296     0.226661    Uiso  ? Co
   Co26       1.0     0.168893     0.336600     0.224679    Uiso  ? Co
   Co27       1.0     0.168893     0.832292     0.224679    Uiso  ? Co
   Co28       1.0     0.004590     0.502295     0.109495    Uiso  ? Co
   Co29       1.0     0.498031     0.997306     0.108309    Uiso  ? Co
   Co30       1.0     0.498031     0.500725     0.108309    Uiso  ? Co
   Co31       1.0     0.329588     0.164794     0.557264    Uiso  ? Co
   Co32       1.0     0.836324     0.670616     0.557083    Uiso  ? Co
   Co33       1.0     0.836324     0.165708     0.557083    Uiso  ? Co
   Co34       1.0     0.668734     0.834367     0.439127    Uiso  ? Co
   Co35       1.0     0.164068     0.329999     0.441051    Uiso  ? Co
   Co36       1.0     0.164068     0.834069     0.441051    Uiso  ? Co
   Cu1        1.0     0.666719     0.833359     0.332880    Uiso  ? Cu
   Cu2        1.0     0.500044     0.499975     0.000627    Uiso  ? Cu
   Cu3        1.0     0.833291     0.666620     0.666469    Uiso  ? Cu
   Cu4        1.0     0.333329     0.166665     0.666510    Uiso  ? Cu
   Cu5        1.0     0.833291     0.166671     0.666469    Uiso  ? Cu
   Cu6        1.0     0.500044     0.000069     0.000627    Uiso  ? Cu
