
#======================================================================
# CRYSTAL DATA
#----------------------------------------------------------------------
data_VESTA_phase_1

_chemical_name_common                  'Sm12 Co42                             '
_cell_length_a                         5.038279
_cell_length_b                         4.981909
_cell_length_c                         36.717583
_cell_angle_alpha                      90.001465
_cell_angle_beta                       90.029709
_cell_angle_gamma                      119.633553
_cell_volume                           801.077384
_space_group_name_H-M_alt              'P 1'
_space_group_IT_number                 1

loop_
_space_group_symop_operation_xyz
   'x, y, z'

loop_
   _atom_site_label
   _atom_site_occupancy
   _atom_site_fract_x
   _atom_site_fract_y
   _atom_site_fract_z
   _atom_site_adp_type
   _atom_site_U_iso_or_equiv
   _atom_site_type_symbol
   Sm1        1.0     0.999461     0.999729     0.946581    Uiso  ? Sm
   Sm2        1.0     0.333732     0.666882     0.720082    Uiso  ? Sm
   Sm3        1.0     0.666333     0.333164     0.281835    Uiso  ? Sm
   Sm4        1.0     0.999970     0.999943     0.054806    Uiso  ? Sm
   Sm5        1.0     0.333440     0.666742     0.611857    Uiso  ? Sm
   Sm6        1.0     0.666528     0.333271     0.384841    Uiso  ? Sm
   Sm7        1.0     0.999414     0.999720     0.851495    Uiso  ? Sm
   Sm8        1.0     0.333873     0.666940     0.815183    Uiso  ? Sm
   Sm9        1.0     0.664985     0.332482     0.186401    Uiso  ? Sm
   Sm10       1.0     0.998912     0.999444     0.149873    Uiso  ? Sm
   Sm11       1.0     0.334985     0.667500     0.516795    Uiso  ? Sm
   Sm12       1.0     0.668597     0.334320     0.480293    Uiso  ? Sm
   Co1        1.0     0.666674     0.333343     0.833313    Uiso  ? Co
   Co2        1.0     0.331499     0.665733     0.168472    Uiso  ? Co
   Co3        1.0     0.002511     0.001267     0.498172    Uiso  ? Co
   Co4        1.0     0.998081     0.999057     0.723027    Uiso  ? Co
   Co5        1.0     0.335417     0.667715     0.943615    Uiso  ? Co
   Co6        1.0     0.664084     0.332020     0.057932    Uiso  ? Co
   Co7        1.0     0.029643     0.014840     0.278926    Uiso  ? Co
   Co8        1.0     0.303732     0.651880     0.387779    Uiso  ? Co
   Co9        1.0     0.669210     0.334580     0.608758    Uiso  ? Co
   Co10       1.0     0.663512     0.331739     0.943968    Uiso  ? Co
   Co11       1.0     0.669517     0.334754     0.722697    Uiso  ? Co
   Co12       1.0     0.302833     0.651436     0.279151    Uiso  ? Co
   Co13       1.0     0.335656     0.667742     0.057507    Uiso  ? Co
   Co14       1.0    -0.002287    -0.001071     0.609147    Uiso  ? Co
   Co15       1.0     0.029500     0.014706     0.387512    Uiso  ? Co
   Co16       1.0     0.166488     0.333277     0.333348    Uiso  ? Co
   Co17       1.0     0.166502     0.833252     0.333342    Uiso  ? Co
   Co18       1.0     0.996252     0.498134     0.892024    Uiso  ? Co
   Co19       1.0     0.501646     0.003774     0.891683    Uiso  ? Co
   Co20       1.0     0.501672     0.497885     0.891681    Uiso  ? Co
   Co21       1.0     0.337092     0.168565     0.774645    Uiso  ? Co
   Co22       1.0     0.831728     0.663034     0.774983    Uiso  ? Co
   Co23       1.0     0.831747     0.168730     0.774987    Uiso  ? Co
   Co24       1.0     0.665345     0.832663     0.227638    Uiso  ? Co
   Co25       1.0     0.169400     0.336772     0.225517    Uiso  ? Co
   Co26       1.0     0.169387     0.832657     0.225515    Uiso  ? Co
   Co27       1.0     0.003430     0.501704     0.109513    Uiso  ? Co
   Co28       1.0     0.497556     0.995878     0.109839    Uiso  ? Co
   Co29       1.0     0.497548     0.501631     0.109846    Uiso  ? Co
   Co30       1.0     0.330064     0.165019     0.557161    Uiso  ? Co
   Co31       1.0     0.836229     0.670720     0.556830    Uiso  ? Co
   Co32       1.0     0.836217     0.165476     0.556824    Uiso  ? Co
   Co33       1.0     0.668056     0.834058     0.439079    Uiso  ? Co
   Co34       1.0     0.163912     0.329833     0.441139    Uiso  ? Co
   Co35       1.0     0.163956     0.834086     0.441147    Uiso  ? Co
   Cu1        1.0     0.666474     0.833239     0.333296    Uiso  ? Cu
   Cu2        1.0     0.499636     0.499791     0.000733    Uiso  ? Cu
   Cu3        1.0     0.833534     0.666779     0.665917    Uiso  ? Cu
   Cu4        1.0     0.333562     0.166794     0.665920    Uiso  ? Cu
   Cu5        1.0     0.833530     0.166782     0.665919    Uiso  ? Cu
   Cu6        1.0     0.499632    -0.000193     0.000736    Uiso  ? Cu
   Cu7        1.0     0.999598     0.499782     0.000720    Uiso  ? Cu
