
#======================================================================
# CRYSTAL DATA
#----------------------------------------------------------------------
data_VESTA_phase_1

_chemical_name_common                  'Sm12 Co42'
_cell_length_a                         5.041691
_cell_length_b                         4.962911
_cell_length_c                         36.350025
_cell_angle_alpha                      90.000000
_cell_angle_beta                       90.000000
_cell_angle_gamma                      120.000000
_cell_volume                           787.676727
_space_group_name_H-M_alt              'P 1'
_space_group_IT_number                 1

loop_
_space_group_symop_operation_xyz
   'x, y, z'

loop_
   _atom_site_label
   _atom_site_occupancy
   _atom_site_fract_x
   _atom_site_fract_y
   _atom_site_fract_z
   _atom_site_adp_type
   _atom_site_U_iso_or_equiv
   _atom_site_type_symbol
   Sm1        1.0    -0.000856    -0.000428     0.948569    Uiso  ? Sm
   Sm2        1.0     0.334189     0.667095     0.718098    Uiso  ? Sm
   Sm3        1.0     0.666719     0.333360     0.281294    Uiso  ? Sm
   Sm4        1.0     0.001062     0.000531     0.051150    Uiso  ? Sm
   Sm5        1.0     0.332272     0.666136     0.615517    Uiso  ? Sm
   Sm6        1.0     0.666614     0.333307     0.385373    Uiso  ? Sm
   Sm7        1.0    -0.000647    -0.000324     0.851882    Uiso  ? Sm
   Sm8        1.0     0.333981     0.666990     0.814784    Uiso  ? Sm
   Sm9        1.0     0.665082     0.332541     0.184991    Uiso  ? Sm
   Sm10       1.0    -0.001138    -0.000569     0.147905    Uiso  ? Sm
   Sm11       1.0     0.334472     0.667236     0.518761    Uiso  ? Sm
   Sm12       1.0     0.668251     0.334126     0.481676    Uiso  ? Sm
   Co1        1.0     0.666667     0.333333     0.833333    Uiso  ? Co
   Co2        1.0     0.331185     0.665593     0.166420    Uiso  ? Co
   Co3        1.0     0.002148     0.001074     0.500247    Uiso  ? Co
   Co4        1.0    -0.011491    -0.005746     0.721349    Uiso  ? Co
   Co5        1.0     0.344825     0.672412     0.945318    Uiso  ? Co
   Co6        1.0     0.659464     0.329732     0.054333    Uiso  ? Co
   Co7        1.0     0.031577     0.015788     0.278206    Uiso  ? Co
   Co8        1.0     0.301757     0.650878     0.388461    Uiso  ? Co
   Co9        1.0     0.673869     0.336935     0.612334    Uiso  ? Co
   Co10       1.0     0.653710     0.326855     0.945480    Uiso  ? Co
   Co11       1.0     0.679624     0.339812     0.721187    Uiso  ? Co
   Co12       1.0     0.301341     0.650671     0.278598    Uiso  ? Co
   Co13       1.0     0.342477     0.671239     0.054214    Uiso  ? Co
   Co14       1.0    -0.009144    -0.004572     0.612452    Uiso  ? Co
   Co15       1.0     0.031992     0.015996     0.388068    Uiso  ? Co
   Co16       1.0     0.500132     0.000034    -0.000103    Uiso  ? Co
   Co17       1.0     0.500132     0.500098    -0.000103    Uiso  ? Co
   Co18       1.0     0.000151     0.500076    -0.000319    Uiso  ? Co
   Co19       1.0     0.166667     0.333333     0.333333    Uiso  ? Co
   Co20       1.0     0.166667     0.833333     0.333333    Uiso  ? Co
   Co21       1.0     0.833201     0.666633     0.666769    Uiso  ? Co
   Co22       1.0     0.833201     0.166568     0.666769    Uiso  ? Co
   Co23       1.0     0.333182     0.166591     0.666986    Uiso  ? Co
   Co24       1.0     0.998015     0.499007     0.892548    Uiso  ? Co
   Co25       1.0     0.501466     0.002268     0.891406    Uiso  ? Co
   Co26       1.0     0.501466     0.499198     0.891406    Uiso  ? Co
   Co27       1.0     0.335319     0.167659     0.774118    Uiso  ? Co
   Co28       1.0     0.831867     0.664398     0.775261    Uiso  ? Co
   Co29       1.0     0.831867     0.167468     0.775261    Uiso  ? Co
   Co30       1.0     0.666551     0.833275     0.226648    Uiso  ? Co
   Co31       1.0     0.170114     0.337466     0.224276    Uiso  ? Co
   Co32       1.0     0.170114     0.832648     0.224276    Uiso  ? Co
   Co33       1.0     0.002252     0.501126     0.107320    Uiso  ? Co
   Co34       1.0     0.497860     0.997560     0.108229    Uiso  ? Co
   Co35       1.0     0.497860     0.500300     0.108229    Uiso  ? Co
   Co36       1.0     0.331082     0.165541     0.559347    Uiso  ? Co
   Co37       1.0     0.835473     0.669107     0.558438    Uiso  ? Co
   Co38       1.0     0.835473     0.166366     0.558438    Uiso  ? Co
   Co39       1.0     0.666782     0.833391     0.440018    Uiso  ? Co
   Co40       1.0     0.163219     0.329201     0.442390    Uiso  ? Co
   Co41       1.0     0.163219     0.834018     0.442390    Uiso  ? Co
   Cu1        1.0     0.666667     0.833333     0.333333    Uiso  ? Cu
