
#======================================================================
# CRYSTAL DATA
#----------------------------------------------------------------------
data_VESTA_phase_1

_chemical_name_common                  'Sm12 Co42'
_cell_length_a                         5.009629
_cell_length_b                         5.009629
_cell_length_c                         36.408375
_cell_angle_alpha                      90.000000
_cell_angle_beta                       90.000000
_cell_angle_gamma                      119.994179
_cell_volume                           791.349931
_space_group_name_H-M_alt              'P 1'
_space_group_IT_number                 1

loop_
_space_group_symop_operation_xyz
   'x, y, z'

loop_
   _atom_site_label
   _atom_site_occupancy
   _atom_site_fract_x
   _atom_site_fract_y
   _atom_site_fract_z
   _atom_site_adp_type
   _atom_site_U_iso_or_equiv
   _atom_site_type_symbol
   Sm1        1.0     0.000017    -0.000017     0.948668    Uiso  ? Sm
   Sm2        1.0     0.333338     0.666662     0.717940    Uiso  ? Sm
   Sm3        1.0     0.666699     0.333301     0.282429    Uiso  ? Sm
   Sm4        1.0     0.000007    -0.000007     0.051105    Uiso  ? Sm
   Sm5        1.0     0.333342     0.666658     0.615320    Uiso  ? Sm
   Sm6        1.0     0.666671     0.333329     0.384852    Uiso  ? Sm
   Sm7        1.0     0.000007    -0.000007     0.851928    Uiso  ? Sm
   Sm8        1.0     0.333343     0.666657     0.814759    Uiso  ? Sm
   Sm9        1.0     0.666665     0.333335     0.185194    Uiso  ? Sm
   Sm10       1.0     0.000004    -0.000004     0.147638    Uiso  ? Sm
   Sm11       1.0     0.333338     0.666662     0.518495    Uiso  ? Sm
   Sm12       1.0     0.666668     0.333332     0.481464    Uiso  ? Sm
   Co1        1.0     0.666675     0.333325     0.833333    Uiso  ? Co
   Co2        1.0     0.333335     0.666665     0.166062    Uiso  ? Co
   Co3        1.0     0.000002    -0.000002     0.500445    Uiso  ? Co
   Co4        1.0    -0.000148     0.000148     0.721162    Uiso  ? Co
   Co5        1.0     0.333445     0.666555     0.945473    Uiso  ? Co
   Co6        1.0     0.666360     0.333640     0.054302    Uiso  ? Co
   Co7        1.0     0.000009    -0.000009     0.279220    Uiso  ? Co
   Co8        1.0     0.332995     0.667005     0.389253    Uiso  ? Co
   Co9        1.0     0.666609     0.333391     0.612315    Uiso  ? Co
   Co10       1.0     0.666570     0.333430     0.945633    Uiso  ? Co
   Co11       1.0     0.666809     0.333191     0.721005    Uiso  ? Co
   Co12       1.0     0.333626     0.666374     0.054283    Uiso  ? Co
   Co13       1.0     0.000025    -0.000025     0.612251    Uiso  ? Co
   Co14       1.0     0.000285    -0.000285     0.387021    Uiso  ? Co
   Co15       1.0     0.500020    -0.000076    -0.000075    Uiso  ? Co
   Co16       1.0     0.499986     0.500014    -0.000079    Uiso  ? Co
   Co17       1.0     0.000076     0.499980    -0.000075    Uiso  ? Co
   Co18       1.0     0.167449     0.334811     0.334064    Uiso  ? Co
   Co19       1.0     0.167408     0.832592     0.334031    Uiso  ? Co
   Co20       1.0     0.665189     0.832551     0.334064    Uiso  ? Co
   Co21       1.0     0.833392     0.666815     0.666673    Uiso  ? Co
   Co22       1.0     0.833384     0.166616     0.666654    Uiso  ? Co
   Co23       1.0     0.333185     0.166608     0.666673    Uiso  ? Co
   Co24       1.0     0.997809     0.498884     0.891886    Uiso  ? Co
   Co25       1.0     0.501116     0.002191     0.891886    Uiso  ? Co
   Co26       1.0     0.501143     0.498857     0.891870    Uiso  ? Co
   Co27       1.0     0.335469     0.167723     0.774803    Uiso  ? Co
   Co28       1.0     0.832277     0.664531     0.774803    Uiso  ? Co
   Co29       1.0     0.832320     0.167680     0.774826    Uiso  ? Co
   Co30       1.0     0.667410     0.833726     0.224383    Uiso  ? Co
   Co31       1.0     0.166274     0.332590     0.224383    Uiso  ? Co
   Co32       1.0     0.166298     0.833702     0.224380    Uiso  ? Co
   Co33       1.0     0.001888     0.500990     0.107827    Uiso  ? Co
   Co34       1.0     0.499010     0.998112     0.107827    Uiso  ? Co
   Co35       1.0     0.498968     0.501032     0.107881    Uiso  ? Co
   Co36       1.0     0.331768     0.165880     0.558598    Uiso  ? Co
   Co37       1.0     0.834120     0.668232     0.558598    Uiso  ? Co
   Co38       1.0     0.834103     0.165897     0.558602    Uiso  ? Co
   Co39       1.0     0.671818     0.835954     0.441738    Uiso  ? Co
   Co40       1.0     0.164046     0.328182     0.441738    Uiso  ? Co
   Co41       1.0     0.163995     0.836005     0.441788    Uiso  ? Co
   Cu1        1.0     0.333385     0.666615     0.278703    Uiso  ? Cu
