
#======================================================================
# CRYSTAL DATA
#----------------------------------------------------------------------
data_VESTA_phase_1

_chemical_name_common                  'Sm12 Co42'
_cell_length_a                         5.071841
_cell_length_b                         4.997344
_cell_length_c                         36.305599
_cell_angle_alpha                      90.000000
_cell_angle_beta                       90.000000
_cell_angle_gamma                      120.494370
_cell_volume                           792.910250
_space_group_name_H-M_alt              'P 1'
_space_group_IT_number                 1

loop_
_space_group_symop_operation_xyz
   'x, y, z'

loop_
   _atom_site_label
   _atom_site_occupancy
   _atom_site_fract_x
   _atom_site_fract_y
   _atom_site_fract_z
   _atom_site_adp_type
   _atom_site_U_iso_or_equiv
   _atom_site_type_symbol
   Sm1        1.0     0.999305     0.999608     0.947921    Uiso  ? Sm
   Sm2        1.0     0.333649     0.666988     0.717949    Uiso  ? Sm
   Sm3        1.0     0.666963     0.333314     0.281462    Uiso  ? Sm
   Sm4        1.0     0.000315     0.000019     0.051872    Uiso  ? Sm
   Sm5        1.0     0.333328     0.666345     0.615385    Uiso  ? Sm
   Sm6        1.0     0.666364     0.333725     0.385413    Uiso  ? Sm
   Sm7        1.0     0.000516     0.998955     0.851675    Uiso  ? Sm
   Sm8        1.0     0.335144     0.666747     0.814644    Uiso  ? Sm
   Sm9        1.0     0.664289     0.333079     0.185143    Uiso  ? Sm
   Sm10       1.0     0.997877     0.000254     0.148190    Uiso  ? Sm
   Sm11       1.0     0.335064     0.666587     0.518689    Uiso  ? Sm
   Sm12       1.0     0.668228     0.334379     0.481658    Uiso  ? Sm
   Co1        1.0     0.668076     0.332122     0.833126    Uiso  ? Co
   Co2        1.0     0.330009     0.666667     0.166667    Uiso  ? Co
   Co3        1.0     0.002621     0.001211     0.500208    Uiso  ? Co
   Co4        1.0     0.991386     0.990072     0.721185    Uiso  ? Co
   Co5        1.0     0.322400     0.685391     0.944830    Uiso  ? Co
   Co6        1.0     0.677155     0.315165     0.054931    Uiso  ? Co
   Co7        1.0     0.028657     0.018169     0.278402    Uiso  ? Co
   Co8        1.0     0.303676     0.647942     0.388504    Uiso  ? Co
   Co9        1.0     0.667981     0.343262     0.612148    Uiso  ? Co
   Co10       1.0     0.676047     0.313385     0.945181    Uiso  ? Co
   Co11       1.0     0.676065     0.343764     0.721053    Uiso  ? Co
   Co12       1.0     0.304821     0.648073     0.278730    Uiso  ? Co
   Co13       1.0     0.323415     0.685261     0.054603    Uiso  ? Co
   Co14       1.0     0.998968     0.989569     0.612281    Uiso  ? Co
   Co15       1.0     0.029328     0.019948     0.388152    Uiso  ? Co
   Co16       1.0     0.499780     0.999795     0.999913    Uiso  ? Co
   Co17       1.0     0.999788     0.499813     0.999870    Uiso  ? Co
   Co18       1.0     0.166652     0.333539     0.333420    Uiso  ? Co
   Co19       1.0     0.166642     0.833520     0.333463    Uiso  ? Co
   Co20       1.0     0.833251     0.666667     0.666667    Uiso  ? Co
   Co21       1.0     0.833431     0.166630     0.666378    Uiso  ? Co
   Co22       1.0     0.333468     0.166703     0.666956    Uiso  ? Co
   Co23       1.0     0.996434     0.499280     0.891355    Uiso  ? Co
   Co24       1.0     0.500960     0.004014     0.890617    Uiso  ? Co
   Co25       1.0     0.499882     0.499715     0.893032    Uiso  ? Co
   Co26       1.0     0.335081     0.166986     0.774291    Uiso  ? Co
   Co27       1.0     0.832675     0.663770     0.775398    Uiso  ? Co
   Co28       1.0     0.832592     0.167842     0.774599    Uiso  ? Co
   Co29       1.0     0.665927     0.833529     0.226516    Uiso  ? Co
   Co30       1.0     0.169174     0.337640     0.224196    Uiso  ? Co
   Co31       1.0     0.169594     0.832936     0.224865    Uiso  ? Co
   Co32       1.0     0.003325     0.500398     0.108468    Uiso  ? Co
   Co33       1.0     0.498200     0.995693     0.109137    Uiso  ? Co
   Co34       1.0     0.499065     0.499804     0.106817    Uiso  ? Co
   Co35       1.0     0.331416     0.165491     0.558735    Uiso  ? Co
   Co36       1.0     0.835572     0.669564     0.557935    Uiso  ? Co
   Co37       1.0     0.834762     0.166347     0.559042    Uiso  ? Co
   Co38       1.0     0.666834     0.833618     0.440301    Uiso  ? Co
   Co39       1.0     0.163613     0.329319     0.442716    Uiso  ? Co
   Co40       1.0     0.163821     0.834053     0.441978    Uiso  ? Co
   Cu1        1.0     0.666624     0.833498     0.333480    Uiso  ? Cu
   Cu2        1.0     0.499793     0.499836     0.999853    Uiso  ? Cu
