
#======================================================================
# CRYSTAL DATA
#----------------------------------------------------------------------
data_VESTA_phase_1

_chemical_name_common                  'Sm8 Co28'
_cell_length_a                         4.976999
_cell_length_b                         5.040808
_cell_length_c                         24.229485
_cell_angle_alpha                      90.000000
_cell_angle_beta                       90.000000
_cell_angle_gamma                      119.582130
_cell_volume                           528.634931
_space_group_name_H-M_alt              'P 1'
_space_group_IT_number                 1

loop_
_space_group_symop_operation_xyz
   'x, y, z'

loop_
   _atom_site_label
   _atom_site_occupancy
   _atom_site_fract_x
   _atom_site_fract_y
   _atom_site_fract_z
   _atom_site_adp_type
   _atom_site_U_iso_or_equiv
   _atom_site_type_symbol
   Sm1        1.0     0.669867     0.339733     0.528785    Uiso  ? Sm
   Sm2        1.0     0.332896     0.665792     0.027764    Uiso  ? Sm
   Sm3        1.0     0.337487     0.674973     0.473139    Uiso  ? Sm
   Sm4        1.0     0.665936     0.331872     0.972221    Uiso  ? Sm
   Sm5        1.0     0.667458     0.334915     0.673515    Uiso  ? Sm
   Sm6        1.0     0.332730     0.665460     0.172671    Uiso  ? Sm
   Sm7        1.0     0.331223     0.662445     0.325975    Uiso  ? Sm
   Sm8        1.0     0.666375     0.332750     0.827165    Uiso  ? Sm
   Co1        1.0     0.006222     0.012443     0.499660    Uiso  ? Co
   Co2        1.0    -0.000489    -0.000979    -0.000071    Uiso  ? Co
   Co3        1.0    -0.003122    -0.006245     0.668997    Uiso  ? Co
   Co4        1.0    -0.007271    -0.014543     0.168382    Uiso  ? Co
   Co5        1.0     0.017249     0.034498     0.330269    Uiso  ? Co
   Co6        1.0    -0.004984    -0.009967     0.831654    Uiso  ? Co
   Co7        1.0     0.645342     0.290685     0.331064    Uiso  ? Co
   Co8        1.0     0.337431     0.674863     0.832144    Uiso  ? Co
   Co9        1.0     0.338294     0.676588     0.667892    Uiso  ? Co
   Co10       1.0     0.673070     0.346140     0.168146    Uiso  ? Co
   Co11       1.0     0.666458     0.833137     0.750212    Uiso  ? Co
   Co12       1.0     0.832955     0.665909     0.252613    Uiso  ? Co
   Co13       1.0     0.831968     0.164874     0.248435    Uiso  ? Co
   Co14       1.0     0.166678     0.833137     0.750212    Uiso  ? Co
   Co15       1.0     0.166248     0.332497     0.750271    Uiso  ? Co
   Co16       1.0     0.332905     0.164874     0.248435    Uiso  ? Co
   Co17       1.0     0.671801     0.840916     0.587572    Uiso  ? Co
   Co18       1.0     0.169115     0.840916     0.587572    Uiso  ? Co
   Co19       1.0     0.166169     0.332339     0.588910    Uiso  ? Co
   Co20       1.0     0.835096     0.670192     0.087166    Uiso  ? Co
   Co21       1.0     0.833838     0.165331     0.087964    Uiso  ? Co
   Co22       1.0     0.331493     0.165331     0.087964    Uiso  ? Co
   Co23       1.0     0.325379     0.159655     0.413231    Uiso  ? Co
   Co24       1.0     0.834275     0.159655     0.413231    Uiso  ? Co
   Co25       1.0     0.165650     0.834937     0.912764    Uiso  ? Co
   Co26       1.0     0.669287     0.834937     0.912764    Uiso  ? Co
   Co27       1.0     0.165555     0.331110     0.911449    Uiso  ? Co
   Cu1        1.0     0.829416     0.658831     0.409863    Uiso  ? Cu
