
#======================================================================
# CRYSTAL DATA
#----------------------------------------------------------------------
data_VESTA_phase_1

_chemical_name_common                  'Sm8 Co28                              '
_cell_length_a                         5.009677
_cell_length_b                         5.008953
_cell_length_c                         24.462927
_cell_angle_alpha                      90.000000
_cell_angle_beta                       90.000000
_cell_angle_gamma                      119.513649
_cell_volume                           534.199265
_space_group_name_H-M_alt              'P 1'
_space_group_IT_number                 1

loop_
_space_group_symop_operation_xyz
   'x, y, z'

loop_
   _atom_site_label
   _atom_site_occupancy
   _atom_site_fract_x
   _atom_site_fract_y
   _atom_site_fract_z
   _atom_site_adp_type
   _atom_site_U_iso_or_equiv
   _atom_site_type_symbol
   Sm1        1.0     0.666275     0.333549     0.526211    Uiso  ? Sm
   Sm2        1.0     0.332743     0.667192     0.028475    Uiso  ? Sm
   Sm3        1.0     0.332743     0.667192     0.471525    Uiso  ? Sm
   Sm4        1.0     0.666275     0.333549     0.973789    Uiso  ? Sm
   Sm5        1.0     0.666490     0.332397     0.668915    Uiso  ? Sm
   Sm6        1.0     0.333749     0.667482     0.171281    Uiso  ? Sm
   Sm7        1.0     0.333749     0.667482     0.328719    Uiso  ? Sm
   Sm8        1.0     0.666490     0.332397     0.831085    Uiso  ? Sm
   Co1        1.0     0.999029     0.000799     0.498576    Uiso  ? Co
   Co2        1.0     0.999029     0.000799     0.001424    Uiso  ? Co
   Co3        1.0     0.000563     0.998048     0.664776    Uiso  ? Co
   Co4        1.0     0.990413     0.010648     0.167413    Uiso  ? Co
   Co5        1.0     0.990413     0.010648     0.332587    Uiso  ? Co
   Co6        1.0     0.000563     0.998048     0.835224    Uiso  ? Co
   Co7        1.0     0.677022     0.324472     0.333039    Uiso  ? Co
   Co8        1.0     0.332628     0.666638     0.835743    Uiso  ? Co
   Co9        1.0     0.332628     0.666638     0.664257    Uiso  ? Co
   Co10       1.0     0.677022     0.324472     0.166961    Uiso  ? Co
   Co11       1.0     0.833412     0.167843     0.250000    Uiso  ? Co
   Co12       1.0     0.670285     0.835095     0.586569    Uiso  ? Co
   Co13       1.0     0.164753     0.834850     0.586225    Uiso  ? Co
   Co14       1.0     0.164432     0.329265     0.586595    Uiso  ? Co
   Co15       1.0     0.835690     0.669945     0.089156    Uiso  ? Co
   Co16       1.0     0.835369     0.164863     0.086882    Uiso  ? Co
   Co17       1.0     0.330653     0.164871     0.089111    Uiso  ? Co
   Co18       1.0     0.330653     0.164871     0.410889    Uiso  ? Co
   Co19       1.0     0.835690     0.669945     0.410844    Uiso  ? Co
   Co20       1.0     0.835369     0.164863     0.413118    Uiso  ? Co
   Co21       1.0     0.164753     0.834850     0.913775    Uiso  ? Co
   Co22       1.0     0.670285     0.835095     0.913431    Uiso  ? Co
   Co23       1.0     0.164432     0.329265     0.913405    Uiso  ? Co
   Cu1        1.0     0.833580     0.667563     0.250000    Uiso  ? Cu
   Cu2        1.0     0.666091     0.832015     0.750000    Uiso  ? Cu
   Cu3        1.0     0.166402     0.332357     0.750000    Uiso  ? Cu
   Cu4        1.0     0.166434     0.831946     0.750000    Uiso  ? Cu
   Cu5        1.0     0.333888     0.168048     0.250000    Uiso  ? Cu
