
#======================================================================
# CRYSTAL DATA
#----------------------------------------------------------------------
data_VESTA_phase_1

_chemical_name_common                  'Sm8 Co28'
_cell_length_a                         4.957780
_cell_length_b                         5.046341
_cell_length_c                         24.277193
_cell_angle_alpha                      90.000000
_cell_angle_beta                       90.000000
_cell_angle_gamma                      119.120987
_cell_volume                           530.605857
_space_group_name_H-M_alt              'P 1'
_space_group_IT_number                 1

loop_
_space_group_symop_operation_xyz
   'x, y, z'

loop_
   _atom_site_label
   _atom_site_occupancy
   _atom_site_fract_x
   _atom_site_fract_y
   _atom_site_fract_z
   _atom_site_adp_type
   _atom_site_U_iso_or_equiv
   _atom_site_type_symbol
   Sm1        1.0     0.667379     0.333416     0.526996    Uiso  ? Sm
   Sm2        1.0     0.334207     0.668063     0.028164    Uiso  ? Sm
   Sm3        1.0     0.334207     0.668063     0.471836    Uiso  ? Sm
   Sm4        1.0     0.667379     0.333416     0.973004    Uiso  ? Sm
   Sm5        1.0     0.666257     0.332755     0.670663    Uiso  ? Sm
   Sm6        1.0     0.333625     0.667369     0.172245    Uiso  ? Sm
   Sm7        1.0     0.333625     0.667369     0.327755    Uiso  ? Sm
   Sm8        1.0     0.666257     0.332755     0.829337    Uiso  ? Sm
   Co1        1.0     0.001481     0.001084     0.499309    Uiso  ? Co
   Co2        1.0     0.001481     0.001084     0.000691    Uiso  ? Co
   Co3        1.0     0.005452     0.982245     0.666839    Uiso  ? Co
   Co4        1.0     0.014480     0.035539     0.168121    Uiso  ? Co
   Co5        1.0     0.014480     0.035539     0.331879    Uiso  ? Co
   Co6        1.0     0.005452     0.982245     0.833161    Uiso  ? Co
   Co7        1.0     0.652990     0.299933     0.332443    Uiso  ? Co
   Co8        1.0     0.327540     0.683043     0.833703    Uiso  ? Co
   Co9        1.0     0.327540     0.683043     0.666297    Uiso  ? Co
   Co10       1.0     0.652990     0.299933     0.167557    Uiso  ? Co
   Co11       1.0     0.833173     0.167443     0.250000    Uiso  ? Co
   Co12       1.0     0.166753     0.832318     0.750000    Uiso  ? Co
   Co13       1.0     0.333980     0.167154     0.250000    Uiso  ? Co
   Co14       1.0     0.669416     0.835733     0.587470    Uiso  ? Co
   Co15       1.0     0.164773     0.836126     0.585300    Uiso  ? Co
   Co16       1.0     0.164524     0.330619     0.588841    Uiso  ? Co
   Co17       1.0     0.834089     0.667978     0.090892    Uiso  ? Co
   Co18       1.0     0.833986     0.163187     0.086413    Uiso  ? Co
   Co19       1.0     0.329621     0.163397     0.087190    Uiso  ? Co
   Co20       1.0     0.329621     0.163397     0.412810    Uiso  ? Co
   Co21       1.0     0.834089     0.667978     0.409108    Uiso  ? Co
   Co22       1.0     0.833986     0.163187     0.413587    Uiso  ? Co
   Co23       1.0     0.164773     0.836126     0.914700    Uiso  ? Co
   Co24       1.0     0.669416     0.835733     0.912530    Uiso  ? Co
   Co25       1.0     0.164524     0.330619     0.911159    Uiso  ? Co
   Cu1        1.0     0.833448     0.667233     0.250000    Uiso  ? Cu
   Cu2        1.0     0.666127     0.832056     0.750000    Uiso  ? Cu
   Cu3        1.0     0.166880     0.332822     0.750000    Uiso  ? Cu
