
#======================================================================
# CRYSTAL DATA
#----------------------------------------------------------------------
data_VESTA_phase_1

_chemical_name_common                  'Sm8 Co28                              '
_cell_length_a                         5.025748
_cell_length_b                         5.025748
_cell_length_c                         24.105785
_cell_angle_alpha                      90.000000
_cell_angle_beta                       90.000000
_cell_angle_gamma                      120.000000
_cell_volume                           527.294666
_space_group_name_H-M_alt              'P 1'
_space_group_IT_number                 1

loop_
_space_group_symop_operation_xyz
   'x, y, z'

loop_
   _atom_site_label
   _atom_site_occupancy
   _atom_site_fract_x
   _atom_site_fract_y
   _atom_site_fract_z
   _atom_site_adp_type
   _atom_site_U_iso_or_equiv
   _atom_site_type_symbol
   Sm1        1.0     0.666667     0.333333     0.526449    Uiso  ? Sm
   Sm2        1.0     0.333333     0.666667     0.027875    Uiso  ? Sm
   Sm3        1.0     0.333333     0.666667     0.470294    Uiso  ? Sm
   Sm4        1.0     0.666667     0.333333     0.972280    Uiso  ? Sm
   Sm5        1.0     0.666667     0.333333     0.672184    Uiso  ? Sm
   Sm6        1.0     0.333333     0.666667     0.173333    Uiso  ? Sm
   Sm7        1.0     0.333333     0.666667     0.325417    Uiso  ? Sm
   Sm8        1.0     0.666667     0.333333     0.826853    Uiso  ? Sm
   Co1        1.0     0.000000     0.000000     0.499650    Uiso  ? Co
   Co2        1.0     0.000000     0.000000     0.000784    Uiso  ? Co
   Co3        1.0     0.000000     0.000000     0.667858    Uiso  ? Co
   Co4        1.0     0.000000     0.000000     0.168391    Uiso  ? Co
   Co5        1.0     0.000000     0.000000     0.831688    Uiso  ? Co
   Co6        1.0     0.666667     0.333333     0.331053    Uiso  ? Co
   Co7        1.0     0.333333     0.666667     0.831686    Uiso  ? Co
   Co8        1.0     0.333333     0.666667     0.667833    Uiso  ? Co
   Co9        1.0     0.666667     0.333333     0.169347    Uiso  ? Co
   Co10       1.0     0.667666     0.833833     0.749744    Uiso  ? Co
   Co11       1.0     0.834650     0.669300     0.250663    Uiso  ? Co
   Co12       1.0     0.834650     0.165350     0.250663    Uiso  ? Co
   Co13       1.0     0.166167     0.833833     0.749744    Uiso  ? Co
   Co14       1.0     0.166167     0.332334     0.749744    Uiso  ? Co
   Co15       1.0     0.330700     0.165350     0.250663    Uiso  ? Co
   Co16       1.0     0.667750     0.833875     0.586972    Uiso  ? Co
   Co17       1.0     0.166125     0.833875     0.586972    Uiso  ? Co
   Co18       1.0     0.166125     0.332250     0.586972    Uiso  ? Co
   Co19       1.0     0.833603     0.667207     0.088156    Uiso  ? Co
   Co20       1.0     0.833603     0.166397     0.088156    Uiso  ? Co
   Co21       1.0     0.332793     0.166397     0.088156    Uiso  ? Co
   Co22       1.0     0.335836     0.167918     0.411547    Uiso  ? Co
   Co23       1.0     0.832082     0.664164     0.411547    Uiso  ? Co
   Co24       1.0     0.832082     0.167918     0.411547    Uiso  ? Co
   Co25       1.0     0.165621     0.834379     0.912434    Uiso  ? Co
   Co26       1.0     0.668758     0.834379     0.912434    Uiso  ? Co
   Co27       1.0     0.165621     0.331242     0.912434    Uiso  ? Co
   V1         1.0     0.000000     0.000000     0.338480    Uiso  ? V
