
#======================================================================
# CRYSTAL DATA
#----------------------------------------------------------------------
data_VESTA_phase_1

_chemical_name_common                  'Sm1 Co5                               '
_cell_length_a                         10.223314
_cell_length_b                         4.856158
_cell_length_c                         7.951765
_cell_angle_alpha                      89.999771
_cell_angle_beta                       90.000145
_cell_angle_gamma                      118.366714
_cell_volume                           347.371040
_space_group_name_H-M_alt              'P 1'
_space_group_IT_number                 1

loop_
_space_group_symop_operation_xyz
   'x, y, z'

loop_
   _atom_site_label
   _atom_site_occupancy
   _atom_site_fract_x
   _atom_site_fract_y
   _atom_site_fract_z
   _atom_site_adp_type
   _atom_site_U_iso_or_equiv
   _atom_site_type_symbol
   Sm1        1.0     0.000010     0.000005    -0.001698    Uiso  ? Sm
   Sm2        1.0     0.499993    -0.000002    -0.004476    Uiso  ? Sm
   Sm3        1.0    -0.000011    -0.000008     0.501698    Uiso  ? Sm
   Sm4        1.0     0.500009     0.000007     0.504473    Uiso  ? Sm
   Co1        1.0     0.188005     0.687950    -0.001613    Uiso  ? Co
   Co2        1.0     0.310325     0.310359     0.001998    Uiso  ? Co
   Co3        1.0     0.689674     0.689655     0.001990    Uiso  ? Co
   Co4        1.0     0.811987     0.312034    -0.001621    Uiso  ? Co
   Co5        1.0     0.188014     0.687958     0.501620    Uiso  ? Co
   Co6        1.0     0.310320     0.310343     0.498007    Uiso  ? Co
   Co7        1.0     0.689675     0.689645     0.498005    Uiso  ? Co
   Co8        1.0     0.811990     0.312053     0.501615    Uiso  ? Co
   Co9        1.0     0.250454     0.000112     0.250000    Uiso  ? Co
   Co10       1.0     0.749553    -0.000097     0.250004    Uiso  ? Co
   Co11       1.0     0.250463     0.500820     0.250005    Uiso  ? Co
   Co12       1.0     0.749539     0.499180     0.249998    Uiso  ? Co
   Co13       1.0     0.249622     0.000055     0.750004    Uiso  ? Co
   Co14       1.0     0.249658     0.499250     0.750000    Uiso  ? Co
   Co15       1.0     0.750378    -0.000062     0.749992    Uiso  ? Co
   Co16       1.0     0.750342     0.500745     0.749997    Uiso  ? Co
   Mn1        1.0     0.499999     0.500004     0.250002    Uiso  ? Mn
   Cu1        1.0     0.500000     0.499997     0.749999    Uiso  ? Cu
   Cu2        1.0    -0.000001     0.499996     0.749999    Uiso  ? Cu
   Cu3        1.0     0.000001     0.500000     0.250001    Uiso  ? Cu
