
#======================================================================
# CRYSTAL DATA
#----------------------------------------------------------------------
data_VESTA_phase_1

_chemical_name_common                  'Sm1 Co5                               '
_cell_length_a                         10.036607
_cell_length_b                         4.986090
_cell_length_c                         8.003222
_cell_angle_alpha                      90.000069
_cell_angle_beta                       90.000473
_cell_angle_gamma                      118.924675
_cell_volume                           350.547748
_space_group_name_H-M_alt              'P 1'
_space_group_IT_number                 1

loop_
_space_group_symop_operation_xyz
   'x, y, z'

loop_
   _atom_site_label
   _atom_site_occupancy
   _atom_site_fract_x
   _atom_site_fract_y
   _atom_site_fract_z
   _atom_site_adp_type
   _atom_site_U_iso_or_equiv
   _atom_site_type_symbol
   Sm1        1.0     0.001328    -0.015698    -0.002491    Uiso  ? Sm
   Sm2        1.0     0.499290     0.017218    -0.005425    Uiso  ? Sm
   Sm3        1.0     0.001325    -0.015715     0.502493    Uiso  ? Sm
   Sm4        1.0     0.499282     0.017227     0.505420    Uiso  ? Sm
   Co1        1.0     0.176022     0.639473    -0.000797    Uiso  ? Co
   Co2        1.0     0.333238     0.361868     0.002231    Uiso  ? Co
   Co3        1.0     0.669853     0.682299    -0.005746    Uiso  ? Co
   Co4        1.0     0.821998     0.312324    -0.009981    Uiso  ? Co
   Co5        1.0     0.176006     0.639449     0.500793    Uiso  ? Co
   Co6        1.0     0.333238     0.361868     0.497752    Uiso  ? Co
   Co7        1.0     0.669842     0.682295     0.505755    Uiso  ? Co
   Co8        1.0     0.822009     0.312330     0.509995    Uiso  ? Co
   Co9        1.0     0.248482     0.502927     0.249989    Uiso  ? Co
   Co10       1.0     0.247841     0.494249     0.749994    Uiso  ? Co
   Co11       1.0     0.753432    -0.001816     0.750019    Uiso  ? Co
   Co12       1.0     0.752012     0.504901     0.750009    Uiso  ? Co
   Mn1        1.0     0.498421     0.512725     0.249998    Uiso  ? Mn
   Cu1        1.0     0.499499     0.512702     0.749999    Uiso  ? Cu
   Cu2        1.0     0.000970     0.490009     0.750008    Uiso  ? Cu
   Cu3        1.0    -0.001548     0.489596     0.249993    Uiso  ? Cu
   Cu4        1.0     0.248550    -0.002095     0.250002    Uiso  ? Cu
   Cu5        1.0     0.249975    -0.000884     0.749994    Uiso  ? Cu
   Cu6        1.0     0.749560     0.499725     0.250000    Uiso  ? Cu
   Cu7        1.0     0.749375     0.003024     0.249996    Uiso  ? Cu
