
#======================================================================
# CRYSTAL DATA
#----------------------------------------------------------------------
data_VESTA_phase_1

_chemical_name_common                  'Sm12 Co42                             '
_cell_length_a                         5.026930
_cell_length_b                         5.026930
_cell_length_c                         36.253334
_cell_angle_alpha                      90.000000
_cell_angle_beta                       90.000000
_cell_angle_gamma                      120.000000
_cell_volume                           793.385456
_space_group_name_H-M_alt              'P 1'
_space_group_IT_number                 1

loop_
_space_group_symop_operation_xyz
   'x, y, z'

loop_
   _atom_site_label
   _atom_site_occupancy
   _atom_site_fract_x
   _atom_site_fract_y
   _atom_site_fract_z
   _atom_site_adp_type
   _atom_site_U_iso_or_equiv
   _atom_site_type_symbol
   Sm1        1.0     -0.000000     0.000000     0.948781    Uiso  ? Sm
   Sm2        1.0     0.333333     0.666667     0.718009    Uiso  ? Sm
   Sm3        1.0     0.666667     0.333333     0.283584    Uiso  ? Sm
   Sm4        1.0     -0.000000     0.000000     0.051515    Uiso  ? Sm
   Sm5        1.0     0.333333     0.666667     0.615493    Uiso  ? Sm
   Sm6        1.0     0.666667     0.333333     0.384997    Uiso  ? Sm
   Sm7        1.0     -0.000000     0.000000     0.851920    Uiso  ? Sm
   Sm8        1.0     0.333333     0.666667     0.814790    Uiso  ? Sm
   Sm9        1.0     0.666667     0.333333     0.185972    Uiso  ? Sm
   Sm10       1.0     -0.000000     0.000000     0.148581    Uiso  ? Sm
   Sm11       1.0     0.333333     0.666667     0.518692    Uiso  ? Sm
   Sm12       1.0     0.666667     0.333333     0.481680    Uiso  ? Sm
   Co1        1.0     0.666667     0.333333     0.833396    Uiso  ? Co
   Co2        1.0     0.333333     0.666667     0.166661    Uiso  ? Co
   Co3        1.0     -0.000000     0.000000     0.500207    Uiso  ? Co
   Co4        1.0     -0.000000     0.000000     0.721223    Uiso  ? Co
   Co5        1.0     0.333333     0.666667     0.945548    Uiso  ? Co
   Co6        1.0     0.666667     0.333333     0.054571    Uiso  ? Co
   Co7        1.0     -0.000000     0.000000     0.277880    Uiso  ? Co
   Co8        1.0     0.333333     0.666667     0.387170    Uiso  ? Co
   Co9        1.0     0.666667     0.333333     0.612214    Uiso  ? Co
   Co10       1.0     0.666667     0.333333     0.945605    Uiso  ? Co
   Co11       1.0     0.666667     0.333333     0.721091    Uiso  ? Co
   Co12       1.0     0.333333     0.666667     0.054315    Uiso  ? Co
   Co13       1.0     -0.000000     0.000000     0.612423    Uiso  ? Co
   Co14       1.0     -0.000000     0.000000     0.388596    Uiso  ? Co
   Co15       1.0     0.500094     0.000187     0.000039    Uiso  ? Co
   Co16       1.0     0.500094     0.499906     0.000039    Uiso  ? Co
   Co17       1.0    -0.000187     0.499906     0.000039    Uiso  ? Co
   Co18       1.0     0.163931     0.327862     0.333756    Uiso  ? Co
   Co19       1.0     0.163931     0.836069     0.333756    Uiso  ? Co
   Co20       1.0     0.672138     0.836069     0.333756    Uiso  ? Co
   Co21       1.0     0.833332     0.666664     0.666729    Uiso  ? Co
   Co22       1.0     0.833332     0.166668     0.666729    Uiso  ? Co
   Co23       1.0     0.333336     0.166668     0.666729    Uiso  ? Co
   Co24       1.0     0.997946     0.498973     0.891857    Uiso  ? Co
   Co25       1.0     0.501027     0.002054     0.891857    Uiso  ? Co
   Co26       1.0     0.501027     0.498973     0.891857    Uiso  ? Co
   Co27       1.0     0.335387     0.167693     0.774882    Uiso  ? Co
   Co28       1.0     0.832307     0.664614     0.774882    Uiso  ? Co
   Co29       1.0     0.832307     0.167693     0.774882    Uiso  ? Co
   Co30       1.0     0.671468     0.835734     0.223830    Uiso  ? Co
   Co31       1.0     0.164266     0.328532     0.223830    Uiso  ? Co
   Co32       1.0     0.164266     0.835734     0.223830    Uiso  ? Co
   Co33       1.0     0.002184     0.501092     0.108188    Uiso  ? Co
   Co34       1.0     0.498908     0.997816     0.108188    Uiso  ? Co
   Co35       1.0     0.498908     0.501092     0.108188    Uiso  ? Co
   Co36       1.0     0.331059     0.165530     0.558634    Uiso  ? Co
   Co37       1.0     0.834470     0.668941     0.558634    Uiso  ? Co
   Co38       1.0     0.834470     0.165530     0.558634    Uiso  ? Co
   Co39       1.0     0.667801     0.833901     0.441731    Uiso  ? Co
   Co40       1.0     0.166099     0.332199     0.441731    Uiso  ? Co
   Co41       1.0     0.166099     0.833901     0.441731    Uiso  ? Co
   Ti1        1.0     0.333333     0.666667     0.276149    Uiso  ? Ti
