
#======================================================================
# CRYSTAL DATA
#----------------------------------------------------------------------
data_VESTA_phase_1

_chemical_name_common                  'Sm12 Co42                             '
_cell_length_a                         5.029828
_cell_length_b                         5.206629
_cell_length_c                         36.892654
_cell_angle_alpha                      90.397499
_cell_angle_beta                       89.506836
_cell_angle_gamma                      121.267059
_cell_volume                           825.799495
_space_group_name_H-M_alt              'P 1'
_space_group_IT_number                 1

loop_
_space_group_symop_operation_xyz
   'x, y, z'

loop_
   _atom_site_label
   _atom_site_occupancy
   _atom_site_fract_x
   _atom_site_fract_y
   _atom_site_fract_z
   _atom_site_adp_type
   _atom_site_U_iso_or_equiv
   _atom_site_type_symbol
   Sm1        1.0     0.993710     0.000795     0.941972    Uiso  ? Sm
   Sm2        1.0     0.337579     0.665633     0.724745    Uiso  ? Sm
   Sm3        1.0     0.647466     0.349766     0.269254    Uiso  ? Sm
   Sm4        1.0     0.988104     0.002226     0.057530    Uiso  ? Sm
   Sm5        1.0     0.343828     0.662869     0.609214    Uiso  ? Sm
   Sm6        1.0     0.689902     0.315440     0.397572    Uiso  ? Sm
   Sm7        1.0     0.000201     0.004572     0.850658    Uiso  ? Sm
   Sm8        1.0     0.332095     0.669278     0.816071    Uiso  ? Sm
   Sm9        1.0     0.652105     0.341432     0.181935    Uiso  ? Sm
   Sm10       1.0     0.981491     0.003450     0.148936    Uiso  ? Sm
   Sm11       1.0     0.350310     0.660089     0.517829    Uiso  ? Sm
   Sm12       1.0     0.681975     0.324630     0.484799    Uiso  ? Sm
   Co1        1.0     0.666165     0.337112     0.833353    Uiso  ? Co
   Co2        1.0     0.318679     0.672526     0.166367    Uiso  ? Co
   Co3        1.0     0.014020     0.991676     0.500171    Uiso  ? Co
   Co4        1.0     0.034293     0.990651     0.723265    Uiso  ? Co
   Co5        1.0     0.296867     0.629160     0.943471    Uiso  ? Co
   Co6        1.0     0.685340     0.327565     0.056278    Uiso  ? Co
   Co7        1.0     0.015042     0.040521     0.278802    Uiso  ? Co
   Co8        1.0     0.379615     0.694734     0.387398    Uiso  ? Co
   Co9        1.0     0.646687     0.292133     0.610393    Uiso  ? Co
   Co10       1.0     0.692305     0.372356     0.943604    Uiso  ? Co
   Co11       1.0     0.638751     0.338149     0.723125    Uiso  ? Co
   Co12       1.0     0.292607     0.641414     0.280206    Uiso  ? Co
   Co13       1.0     0.289708     0.675257     0.055575    Uiso  ? Co
   Co14       1.0     0.042776     0.033659     0.611051    Uiso  ? Co
   Co15       1.0     0.977826     0.948220     0.386688    Uiso  ? Co
   Co16       1.0     0.989430     0.501931     0.999725    Uiso  ? Co
   Co17       1.0     0.341433     0.165167     0.666979    Uiso  ? Co
   Co18       1.0     0.993486     0.499852     0.888803    Uiso  ? Co
   Co19       1.0     0.495493     0.001174     0.892245    Uiso  ? Co
   Co20       1.0     0.498261     0.498382     0.890525    Uiso  ? Co
   Co21       1.0     0.338034     0.168019     0.777927    Uiso  ? Co
   Co22       1.0     0.833644     0.662379     0.776202    Uiso  ? Co
   Co23       1.0     0.836277     0.168070     0.774475    Uiso  ? Co
   Co24       1.0     0.653952     0.846429     0.224297    Uiso  ? Co
   Co25       1.0     0.152313     0.344420     0.222451    Uiso  ? Co
   Co26       1.0     0.155963     0.838392     0.224002    Uiso  ? Co
   Co27       1.0     0.992726     0.505343     0.110569    Uiso  ? Co
   Co28       1.0     0.484642     0.999022     0.108862    Uiso  ? Co
   Co29       1.0     0.486034     0.504440     0.107071    Uiso  ? Co
   Co30       1.0     0.340589     0.156628     0.556039    Uiso  ? Co
   Co31       1.0     0.846715     0.662961     0.559532    Uiso  ? Co
   Co32       1.0     0.847277     0.156989     0.557898    Uiso  ? Co
   Co33       1.0     0.680704     0.821595     0.444104    Uiso  ? Co
   Co34       1.0     0.185603     0.320335     0.441980    Uiso  ? Co
   Co35       1.0     0.180586     0.826996     0.442829    Uiso  ? Co
   Ti1        1.0     0.673301     0.944620     0.326427    Uiso  ? Ti
   Ti2        1.0     0.490201     0.501947     0.001029    Uiso  ? Ti
   Ti3        1.0     0.840716     0.664531     0.665751    Uiso  ? Ti
   Ti4        1.0     0.840016     0.164501     0.668200    Uiso  ? Ti
   Ti5        1.0     0.491627     0.002372     0.998439    Uiso  ? Ti
   Ti6        1.0     0.276208     0.348150     0.340533    Uiso  ? Ti
   Ti7        1.0     0.065323     0.740043     0.332845    Uiso  ? Ti
