
#======================================================================
# CRYSTAL DATA
#----------------------------------------------------------------------
data_VESTA_phase_1

_chemical_name_common                  'Sm12 Co42                             '
_cell_length_a                         5.042406
_cell_length_b                         5.042406
_cell_length_c                         36.159592
_cell_angle_alpha                      90.000000
_cell_angle_beta                       90.000000
_cell_angle_gamma                      120.000000
_cell_volume                           796.213805
_space_group_name_H-M_alt              'P 1'
_space_group_IT_number                 1

loop_
_space_group_symop_operation_xyz
   'x, y, z'

loop_
   _atom_site_label
   _atom_site_occupancy
   _atom_site_fract_x
   _atom_site_fract_y
   _atom_site_fract_z
   _atom_site_adp_type
   _atom_site_U_iso_or_equiv
   _atom_site_type_symbol
   Sm1        1.0     0.000000     0.000000     0.948463    Uiso  ? Sm
   Sm2        1.0     0.333333     0.666667     0.717984    Uiso  ? Sm
   Sm3        1.0     0.666667     0.333333     0.282874    Uiso  ? Sm
   Sm4        1.0     0.000000     0.000000     0.050459    Uiso  ? Sm
   Sm5        1.0     0.333333     0.666667     0.615350    Uiso  ? Sm
   Sm6        1.0     0.666667     0.333333     0.384870    Uiso  ? Sm
   Sm7        1.0     0.000000     0.000000     0.851878    Uiso  ? Sm
   Sm8        1.0     0.333333     0.666667     0.814878    Uiso  ? Sm
   Sm9        1.0     0.666667     0.333333     0.188032    Uiso  ? Sm
   Sm10       1.0     0.000000     0.000000     0.145301    Uiso  ? Sm
   Sm11       1.0     0.333333     0.666667     0.518455    Uiso  ? Sm
   Sm12       1.0     0.666667     0.333333     0.481456    Uiso  ? Sm
   Co1        1.0     0.666667     0.333333     0.833243    Uiso  ? Co
   Co2        1.0     0.000000     0.000000     0.500090    Uiso  ? Co
   Co3        1.0     0.000000     0.000000     0.721205    Uiso  ? Co
   Co4        1.0     0.333333     0.666667     0.945198    Uiso  ? Co
   Co5        1.0     0.666667     0.333333     0.053690    Uiso  ? Co
   Co6        1.0     0.000000     0.000000     0.279643    Uiso  ? Co
   Co7        1.0     0.333333     0.666667     0.388136    Uiso  ? Co
   Co8        1.0     0.666667     0.333333     0.612128    Uiso  ? Co
   Co9        1.0     0.666667     0.333333     0.945789    Uiso  ? Co
   Co10       1.0     0.666667     0.333333     0.721015    Uiso  ? Co
   Co11       1.0     0.333333     0.666667     0.278383    Uiso  ? Co
   Co12       1.0     0.333333     0.666667     0.054950    Uiso  ? Co
   Co13       1.0     0.000000     0.000000     0.612319    Uiso  ? Co
   Co14       1.0     0.000000     0.000000     0.387545    Uiso  ? Co
   Co15       1.0     0.499442    -0.001117    -0.000006    Uiso  ? Co
   Co16       1.0     0.499442     0.500558    -0.000006    Uiso  ? Co
   Co17       1.0     0.001117     0.500558    -0.000006    Uiso  ? Co
   Co18       1.0     0.167225     0.334450     0.333339    Uiso  ? Co
   Co19       1.0     0.167225     0.832775     0.333339    Uiso  ? Co
   Co20       1.0     0.665550     0.832775     0.333339    Uiso  ? Co
   Co21       1.0     0.833333     0.666667     0.666667    Uiso  ? Co
   Co22       1.0     0.833333     0.166667     0.666667    Uiso  ? Co
   Co23       1.0     0.333333     0.166667     0.666667    Uiso  ? Co
   Co24       1.0     0.997088     0.498544     0.891817    Uiso  ? Co
   Co25       1.0     0.501456     0.002912     0.891817    Uiso  ? Co
   Co26       1.0     0.501456     0.498544     0.891817    Uiso  ? Co
   Co27       1.0     0.335432     0.167716     0.774878    Uiso  ? Co
   Co28       1.0     0.832284     0.664568     0.774878    Uiso  ? Co
   Co29       1.0     0.832284     0.167716     0.774878    Uiso  ? Co
   Co30       1.0     0.670822     0.835411     0.225086    Uiso  ? Co
   Co31       1.0     0.164589     0.329178     0.225086    Uiso  ? Co
   Co32       1.0     0.164589     0.835411     0.225086    Uiso  ? Co
   Co33       1.0    -0.004156     0.497922     0.108247    Uiso  ? Co
   Co34       1.0     0.502078     0.004156     0.108247    Uiso  ? Co
   Co35       1.0     0.502078     0.497922     0.108247    Uiso  ? Co
   Co36       1.0     0.331235     0.165617     0.558455    Uiso  ? Co
   Co37       1.0     0.834383     0.668765     0.558455    Uiso  ? Co
   Co38       1.0     0.834383     0.165617     0.558455    Uiso  ? Co
   Co39       1.0     0.669578     0.834789     0.441516    Uiso  ? Co
   Co40       1.0     0.165211     0.330422     0.441516    Uiso  ? Co
   Co41       1.0     0.165211     0.834789     0.441516    Uiso  ? Co
   Ti1        1.0     0.333333     0.666667     0.166667    Uiso  ? Ti
