
#======================================================================
# CRYSTAL DATA
#----------------------------------------------------------------------
data_VESTA_phase_1

_chemical_name_common                  'Sm12 Co42                             '
_cell_length_a                         5.002430
_cell_length_b                         5.178188
_cell_length_c                         36.832073
_cell_angle_alpha                      89.999290
_cell_angle_beta                       89.880066
_cell_angle_gamma                      121.165718
_cell_volume                           816.379408
_space_group_name_H-M_alt              'P 1'
_space_group_IT_number                 1

loop_
_space_group_symop_operation_xyz
   'x, y, z'

loop_
   _atom_site_label
   _atom_site_occupancy
   _atom_site_fract_x
   _atom_site_fract_y
   _atom_site_fract_z
   _atom_site_adp_type
   _atom_site_U_iso_or_equiv
   _atom_site_type_symbol
   Sm1        1.0     0.999247     0.999114     0.942523    Uiso  ? Sm
   Sm2        1.0     0.335268     0.667648     0.724117    Uiso  ? Sm
   Sm3        1.0     0.663617     0.332298     0.279835    Uiso  ? Sm
   Sm4        1.0     0.995966     0.997364     0.059053    Uiso  ? Sm
   Sm5        1.0     0.337644     0.668631     0.607585    Uiso  ? Sm
   Sm6        1.0     0.668714     0.334719     0.386851    Uiso  ? Sm
   Sm7        1.0     0.001452     0.003047     0.850786    Uiso  ? Sm
   Sm8        1.0     0.332915     0.668828     0.815884    Uiso  ? Sm
   Sm9        1.0     0.661532     0.332230     0.186182    Uiso  ? Sm
   Sm10       1.0     0.990642     0.996285     0.150805    Uiso  ? Sm
   Sm11       1.0     0.342100     0.671834     0.515852    Uiso  ? Sm
   Sm12       1.0     0.671181     0.336851     0.480500    Uiso  ? Sm
   Co1        1.0     0.667249     0.336242     0.833354    Uiso  ? Co
   Co2        1.0     0.326854     0.664760     0.168272    Uiso  ? Co
   Co3        1.0     0.005811     0.004129     0.498394    Uiso  ? Co
   Co4        1.0     0.031679     0.994518     0.722627    Uiso  ? Co
   Co5        1.0     0.302439     0.629296     0.944075    Uiso  ? Co
   Co6        1.0     0.692962     0.324819     0.057510    Uiso  ? Co
   Co7        1.0     0.017936     0.009253     0.277962    Uiso  ? Co
   Co8        1.0     0.314346     0.657398     0.388770    Uiso  ? Co
   Co9        1.0     0.640653     0.298855     0.609115    Uiso  ? Co
   Co10       1.0     0.697934     0.368924     0.944355    Uiso  ? Co
   Co11       1.0     0.637134     0.338770     0.722275    Uiso  ? Co
   Co12       1.0     0.310046     0.655768     0.278369    Uiso  ? Co
   Co13       1.0     0.297468     0.668168     0.057316    Uiso  ? Co
   Co14       1.0     0.035672     0.037858     0.609354    Uiso  ? Co
   Co15       1.0     0.022259     0.011538     0.388261    Uiso  ? Co
   Co16       1.0     0.998115     0.498687     0.000820    Uiso  ? Co
   Co17       1.0     0.165967     0.333237     0.333326    Uiso  ? Co
   Co18       1.0     0.165941     0.833529     0.333356    Uiso  ? Co
   Co19       1.0     0.335902     0.168050     0.665838    Uiso  ? Co
   Co20       1.0     0.996349     0.498070     0.889229    Uiso  ? Co
   Co21       1.0     0.498824     0.000399     0.892552    Uiso  ? Co
   Co22       1.0     0.501114     0.496779     0.891032    Uiso  ? Co
   Co23       1.0     0.337982     0.169132     0.777444    Uiso  ? Co
   Co24       1.0     0.833365     0.663188     0.775653    Uiso  ? Co
   Co25       1.0     0.835457     0.169166     0.774149    Uiso  ? Co
   Co26       1.0     0.663133     0.832592     0.226448    Uiso  ? Co
   Co27       1.0     0.164596     0.336344     0.225063    Uiso  ? Co
   Co28       1.0     0.165467     0.829662     0.225050    Uiso  ? Co
   Co29       1.0     0.998675     0.498414     0.112453    Uiso  ? Co
   Co30       1.0     0.493218     0.994101     0.110565    Uiso  ? Co
   Co31       1.0     0.494670     0.497088     0.109068    Uiso  ? Co
   Co32       1.0     0.334550     0.166270     0.554220    Uiso  ? Co
   Co33       1.0     0.838569     0.669240     0.557629    Uiso  ? Co
   Co34       1.0     0.839769     0.167195     0.556046    Uiso  ? Co
   Co35       1.0     0.669389     0.835458     0.440243    Uiso  ? Co
   Co36       1.0     0.166886     0.329886     0.441623    Uiso  ? Co
   Co37       1.0     0.167962     0.837890     0.441620    Uiso  ? Co
   Ti1        1.0     0.665269     0.833054     0.333356    Uiso  ? Ti
   Ti2        1.0     0.497628     0.498246     0.001813    Uiso  ? Ti
   Ti3        1.0     0.835759     0.667954     0.664780    Uiso  ? Ti
   Ti4        1.0     0.836715     0.168591     0.666894    Uiso  ? Ti
   Ti5        1.0     0.498011     0.998637     0.999750    Uiso  ? Ti
