
#======================================================================
# CRYSTAL DATA
#----------------------------------------------------------------------
data_VESTA_phase_1

_chemical_name_common                  'Sm12 Co42                             '
_cell_length_a                         5.014352
_cell_length_b                         5.103274
_cell_length_c                         36.771908
_cell_angle_alpha                      89.979454
_cell_angle_beta                       89.953880
_cell_angle_gamma                      120.656258
_cell_volume                           809.468864
_space_group_name_H-M_alt              'P 1'
_space_group_IT_number                 1

loop_
_space_group_symop_operation_xyz
   'x, y, z'

loop_
   _atom_site_label
   _atom_site_occupancy
   _atom_site_fract_x
   _atom_site_fract_y
   _atom_site_fract_z
   _atom_site_adp_type
   _atom_site_U_iso_or_equiv
   _atom_site_type_symbol
   Sm1        1.0     0.999045     0.997993     0.946249    Uiso  ? Sm
   Sm2        1.0     0.333128     0.666527     0.725075    Uiso  ? Sm
   Sm3        1.0     0.665998     0.333586     0.278503    Uiso  ? Sm
   Sm4        1.0     0.997554     0.999099     0.055398    Uiso  ? Sm
   Sm5        1.0     0.335554     0.668122     0.608153    Uiso  ? Sm
   Sm6        1.0     0.669333     0.334854     0.386654    Uiso  ? Sm
   Sm7        1.0     0.998540     0.996113     0.852782    Uiso  ? Sm
   Sm8        1.0     0.331205     0.662403     0.817231    Uiso  ? Sm
   Sm9        1.0     0.664134     0.334441     0.184728    Uiso  ? Sm
   Sm10       1.0     0.994876     0.999364     0.148829    Uiso  ? Sm
   Sm11       1.0     0.339829     0.669074     0.515997    Uiso  ? Sm
   Sm12       1.0     0.671040     0.334566     0.480452    Uiso  ? Sm
   Co1        1.0     0.664793     0.329559     0.834894    Uiso  ? Co
   Co2        1.0     0.330352     0.666990     0.166724    Uiso  ? Co
   Co3        1.0     0.004473     0.001329     0.498346    Uiso  ? Co
   Co4        1.0     0.027593     0.031954     0.723629    Uiso  ? Co
   Co5        1.0     0.312421     0.678796     0.945335    Uiso  ? Co
   Co6        1.0     0.684243     0.317925     0.056274    Uiso  ? Co
   Co7        1.0     0.025793     0.013591     0.277055    Uiso  ? Co
   Co8        1.0     0.309962     0.655059     0.388142    Uiso  ? Co
   Co9        1.0     0.640253     0.338768     0.609483    Uiso  ? Co
   Co10       1.0     0.685919     0.317703     0.945719    Uiso  ? Co
   Co11       1.0     0.636467     0.301207     0.723503    Uiso  ? Co
   Co12       1.0     0.306927     0.653731     0.277403    Uiso  ? Co
   Co13       1.0     0.311297     0.680116     0.055959    Uiso  ? Co
   Co14       1.0     0.031966     0.998862     0.609757    Uiso  ? Co
   Co15       1.0     0.027981     0.014155     0.387709    Uiso  ? Co
   Co16       1.0     0.498241     0.998608     0.000799    Uiso  ? Co
   Co17       1.0     0.998536     0.498734     0.000828    Uiso  ? Co
   Co18       1.0     0.167367     0.333985     0.332585    Uiso  ? Co
   Co19       1.0     0.167443     0.834124     0.332567    Uiso  ? Co
   Co20       1.0     0.334563     0.167464     0.666607    Uiso  ? Co
   Co21       1.0     0.994361     0.496128     0.891435    Uiso  ? Co
   Co22       1.0     0.500059     0.002797     0.891859    Uiso  ? Co
   Co23       1.0     0.497607     0.497121     0.894455    Uiso  ? Co
   Co24       1.0     0.335756     0.167067     0.778652    Uiso  ? Co
   Co25       1.0     0.833550     0.665451     0.775581    Uiso  ? Co
   Co26       1.0     0.831172     0.168017     0.776884    Uiso  ? Co
   Co27       1.0     0.665792     0.834552     0.225574    Uiso  ? Co
   Co28       1.0     0.167480     0.337765     0.223650    Uiso  ? Co
   Co29       1.0     0.168469     0.832119     0.223661    Uiso  ? Co
   Co30       1.0     0.002176     0.501175     0.110195    Uiso  ? Co
   Co31       1.0     0.495486     0.995598     0.109848    Uiso  ? Co
   Co32       1.0     0.497411     0.498721     0.107170    Uiso  ? Co
   Co33       1.0     0.331735     0.166536     0.554540    Uiso  ? Co
   Co34       1.0     0.837713     0.671273     0.556341    Uiso  ? Co
   Co35       1.0     0.836192     0.168174     0.557675    Uiso  ? Co
   Co36       1.0     0.669526     0.834423     0.439549    Uiso  ? Co
   Co37       1.0     0.167574     0.330441     0.441475    Uiso  ? Co
   Co38       1.0     0.166764     0.836854     0.441464    Uiso  ? Co
   Ti1        1.0     0.667089     0.833922     0.332572    Uiso  ? Ti
   Ti2        1.0     0.498442     0.498531     0.000823    Uiso  ? Ti
   Ti3        1.0     0.834578     0.667334     0.667613    Uiso  ? Ti
   Ti4        1.0     0.834242     0.167197     0.665617    Uiso  ? Ti
