
#======================================================================
# CRYSTAL DATA
#----------------------------------------------------------------------
data_VESTA_phase_1

_chemical_name_common                  'Sm12 Co42                             '
_cell_length_a                         5.057010
_cell_length_b                         5.163355
_cell_length_c                         36.879360
_cell_angle_alpha                      89.645020
_cell_angle_beta                       90.364624
_cell_angle_gamma                      120.607651
_cell_volume                           828.774789
_space_group_name_H-M_alt              'P 1'
_space_group_IT_number                 1

loop_
_space_group_symop_operation_xyz
   'x, y, z'

loop_
   _atom_site_label
   _atom_site_occupancy
   _atom_site_fract_x
   _atom_site_fract_y
   _atom_site_fract_z
   _atom_site_adp_type
   _atom_site_U_iso_or_equiv
   _atom_site_type_symbol
   Sm1        1.0     0.983101     0.980117     0.942653    Uiso  ? Sm
   Sm2        1.0     0.301450     0.655854     0.731054    Uiso  ? Sm
   Sm3        1.0     0.657687     0.298417     0.269104    Uiso  ? Sm
   Sm4        1.0     0.987242     0.977879     0.057560    Uiso  ? Sm
   Sm5        1.0     0.374831     0.711071     0.602956    Uiso  ? Sm
   Sm6        1.0     0.698149     0.383311     0.396899    Uiso  ? Sm
   Sm7        1.0     0.981175     0.984193     0.851327    Uiso  ? Sm
   Sm8        1.0     0.310671     0.652260     0.818369    Uiso  ? Sm
   Sm9        1.0     0.656294     0.309741     0.181824    Uiso  ? Sm
   Sm10       1.0     0.985810     0.975615     0.148930    Uiso  ? Sm
   Sm11       1.0     0.364128     0.708021     0.515552    Uiso  ? Sm
   Sm12       1.0     0.693781     0.373111     0.484155    Uiso  ? Sm
   Co1        1.0     0.646031     0.317691     0.833670    Uiso  ? Co
   Co2        1.0     0.322651     0.644402     0.166409    Uiso  ? Co
   Co3        1.0     0.027230     0.038105     0.499930    Uiso  ? Co
   Co4        1.0     0.987772     0.033698     0.720629    Uiso  ? Co
   Co5        1.0     0.285760     0.609376     0.943569    Uiso  ? Co
   Co6        1.0     0.684202     0.304890     0.056516    Uiso  ? Co
   Co7        1.0     0.033167     0.985699     0.278672    Uiso  ? Co
   Co8        1.0     0.390393     0.696545     0.386958    Uiso  ? Co
   Co9        1.0     0.679463     0.393862     0.613048    Uiso  ? Co
   Co10       1.0     0.681703     0.350542     0.944349    Uiso  ? Co
   Co11       1.0     0.643614     0.294123     0.721113    Uiso  ? Co
   Co12       1.0     0.295042     0.644703     0.279562    Uiso  ? Co
   Co13       1.0     0.289288     0.649568     0.055936    Uiso  ? Co
   Co14       1.0     0.041709     0.008292     0.612994    Uiso  ? Co
   Co15       1.0     0.984941     0.033361     0.386126    Uiso  ? Co
   Co16       1.0     0.986158     0.480181     0.000110    Uiso  ? Co
   Co17       1.0     0.973923     0.476714     0.889469    Uiso  ? Co
   Co18       1.0     0.481170     0.983270     0.892946    Uiso  ? Co
   Co19       1.0     0.482012     0.477482     0.891199    Uiso  ? Co
   Co20       1.0     0.316750     0.159995     0.776563    Uiso  ? Co
   Co21       1.0     0.809383     0.659346     0.775629    Uiso  ? Co
   Co22       1.0     0.811120     0.156114     0.777698    Uiso  ? Co
   Co23       1.0     0.661180     0.807814     0.224341    Uiso  ? Co
   Co24       1.0     0.163625     0.318216     0.223613    Uiso  ? Co
   Co25       1.0     0.158932     0.809261     0.222380    Uiso  ? Co
   Co26       1.0     0.995740     0.479932     0.110715    Uiso  ? Co
   Co27       1.0     0.486193     0.971923     0.108952    Uiso  ? Co
   Co28       1.0     0.488451     0.477175     0.107355    Uiso  ? Co
   Co29       1.0     0.356707     0.203679     0.557224    Uiso  ? Co
   Co30       1.0     0.864101     0.706913     0.556695    Uiso  ? Co
   Co31       1.0     0.866511     0.209875     0.558495    Uiso  ? Co
   Co32       1.0     0.695382     0.874176     0.443581    Uiso  ? Co
   Co33       1.0     0.190210     0.365550     0.442114    Uiso  ? Co
   Co34       1.0     0.196823     0.876856     0.441192    Uiso  ? Co
   Ti1        1.0     0.681441     0.739264     0.325130    Uiso  ? Ti
   Ti2        1.0     0.485259     0.479323     0.001356    Uiso  ? Ti
   Ti3        1.0     0.738270     0.674790     0.672945    Uiso  ? Ti
   Ti4        1.0     0.939389     0.276017     0.660035    Uiso  ? Ti
   Ti5        1.0     0.485864     0.979854     0.998776    Uiso  ? Ti
   Ti6        1.0     0.076856     0.334545     0.333531    Uiso  ? Ti
   Ti7        1.0     0.281953     0.934106     0.340078    Uiso  ? Ti
   Ti8        1.0     0.339310     0.073184     0.668018    Uiso  ? Ti
