
#======================================================================
# CRYSTAL DATA
#----------------------------------------------------------------------
data_VESTA_phase_1

_chemical_name_common                  'Sm12 Co42                             '
_cell_length_a                         5.031763
_cell_length_b                         5.031461
_cell_length_c                         36.235153
_cell_angle_alpha                      90.002327
_cell_angle_beta                       89.996689
_cell_angle_gamma                      120.008774
_cell_volume                           794.395261
_space_group_name_H-M_alt              'P 1'
_space_group_IT_number                 1

loop_
_space_group_symop_operation_xyz
   'x, y, z'

loop_
   _atom_site_label
   _atom_site_occupancy
   _atom_site_fract_x
   _atom_site_fract_y
   _atom_site_fract_z
   _atom_site_adp_type
   _atom_site_U_iso_or_equiv
   _atom_site_type_symbol
   Sm1        1.0     0.000071     0.999995     0.948604    Uiso  ? Sm
   Sm2        1.0     0.333312     0.666675     0.717989    Uiso  ? Sm
   Sm3        1.0     0.666622     0.333352     0.281162    Uiso  ? Sm
   Sm4        1.0     0.000009     0.000022     0.051137    Uiso  ? Sm
   Sm5        1.0     0.333201     0.666690     0.615323    Uiso  ? Sm
   Sm6        1.0     0.666818     0.333247     0.381915    Uiso  ? Sm
   Sm7        1.0     0.999954     0.000097     0.851801    Uiso  ? Sm
   Sm8        1.0     0.333328     0.666760     0.814790    Uiso  ? Sm
   Sm9        1.0     0.666604     0.333290     0.184842    Uiso  ? Sm
   Sm10       1.0     0.000018    -0.000034     0.147917    Uiso  ? Sm
   Sm11       1.0     0.333317     0.666675     0.517966    Uiso  ? Sm
   Sm12       1.0     0.666701     0.333315     0.480045    Uiso  ? Sm
   Co1        1.0     0.666631     0.333411     0.833419    Uiso  ? Co
   Co2        1.0     0.333350     0.666628     0.166345    Uiso  ? Co
   Co3        1.0     0.000008    -0.000003     0.502270    Uiso  ? Co
   Co4        1.0     0.000680     0.000125     0.721617    Uiso  ? Co
   Co5        1.0     0.333104     0.666328     0.945308    Uiso  ? Co
   Co6        1.0     0.666301     0.332586     0.054259    Uiso  ? Co
   Co7        1.0     0.999656     1.000340     0.278014    Uiso  ? Co
   Co8        1.0     0.667074     0.333471     0.613173    Uiso  ? Co
   Co9        1.0     0.666942     0.333541     0.945573    Uiso  ? Co
   Co10       1.0     0.666029     0.333290     0.720908    Uiso  ? Co
   Co11       1.0     0.333667     0.666357     0.279112    Uiso  ? Co
   Co12       1.0     0.333684     0.667380     0.054274    Uiso  ? Co
   Co13       1.0     0.999335     0.999932     0.612127    Uiso  ? Co
   Co14       1.0     1.000168     0.999969     0.387881    Uiso  ? Co
   Co15       1.0     0.499989     0.999888     0.999794    Uiso  ? Co
   Co16       1.0     0.499984     0.500162     0.999860    Uiso  ? Co
   Co17       1.0     0.000293     0.500174     0.999871    Uiso  ? Co
   Co18       1.0     0.164920     0.329792     0.332513    Uiso  ? Co
   Co19       1.0     0.164919     0.835111     0.332491    Uiso  ? Co
   Co20       1.0     0.670300     0.835130     0.332516    Uiso  ? Co
   Co21       1.0     0.833829     0.667887     0.666891    Uiso  ? Co
   Co22       1.0     0.833766     0.166064     0.666926    Uiso  ? Co
   Co23       1.0     0.331859     0.165970     0.666829    Uiso  ? Co
   Co24       1.0     0.997677     0.498935     0.891727    Uiso  ? Co
   Co25       1.0     0.501122     0.002382     0.891744    Uiso  ? Co
   Co26       1.0     0.501206     0.498844     0.891741    Uiso  ? Co
   Co27       1.0     0.336272     0.168173     0.774956    Uiso  ? Co
   Co28       1.0     0.831925     0.663816     0.774934    Uiso  ? Co
   Co29       1.0     0.831929     0.168199     0.774909    Uiso  ? Co
   Co30       1.0     0.663661     0.831879     0.224749    Uiso  ? Co
   Co31       1.0     0.167947     0.336205     0.224748    Uiso  ? Co
   Co32       1.0     0.167974     0.831860     0.224808    Uiso  ? Co
   Co33       1.0     0.001614     0.500766     0.107958    Uiso  ? Co
   Co34       1.0     0.499180     0.998282     0.107995    Uiso  ? Co
   Co35       1.0     0.499139     0.500822     0.107956    Uiso  ? Co
   Co36       1.0     0.335560     0.167836     0.558864    Uiso  ? Co
   Co37       1.0     0.832139     0.664420     0.558846    Uiso  ? Co
   Co38       1.0     0.832183     0.167788     0.558839    Uiso  ? Co
   Co39       1.0     0.681716     0.840715     0.442591    Uiso  ? Co
   Co40       1.0     0.159360     0.318369     0.442594    Uiso  ? Co
   Co41       1.0     0.159458     0.840575     0.442571    Uiso  ? Co
   Ti1        1.0     0.333498     0.666517     0.392007    Uiso  ? Ti
