
#======================================================================
# CRYSTAL DATA
#----------------------------------------------------------------------
data_VESTA_phase_1

_chemical_name_common                  'Sm12 Co42                             '
_cell_length_a                         5.019624
_cell_length_b                         5.024226
_cell_length_c                         36.687092
_cell_angle_alpha                      90.067429
_cell_angle_beta                       89.967995
_cell_angle_gamma                      119.907188
_cell_volume                           802.027785
_space_group_name_H-M_alt              'P 1'
_space_group_IT_number                 1

loop_
_space_group_symop_operation_xyz
   'x, y, z'

loop_
   _atom_site_label
   _atom_site_occupancy
   _atom_site_fract_x
   _atom_site_fract_y
   _atom_site_fract_z
   _atom_site_adp_type
   _atom_site_U_iso_or_equiv
   _atom_site_type_symbol
   Sm1        1.0     0.000679     0.000952     0.945277    Uiso  ? Sm
   Sm2        1.0     0.332430     0.664663     0.721357    Uiso  ? Sm
   Sm3        1.0     0.664898     0.332269     0.278647    Uiso  ? Sm
   Sm4        1.0    -0.000023     0.000419     0.054727    Uiso  ? Sm
   Sm5        1.0     0.334032     0.667072     0.611915    Uiso  ? Sm
   Sm6        1.0     0.667644     0.334391     0.388077    Uiso  ? Sm
   Sm7        1.0     0.999429     0.998709     0.851426    Uiso  ? Sm
   Sm8        1.0     0.333448     0.666372     0.815200    Uiso  ? Sm
   Sm9        1.0     0.663642     0.330497     0.184790    Uiso  ? Sm
   Sm10       1.0     0.996793     0.997386     0.148581    Uiso  ? Sm
   Sm11       1.0     0.337409     0.670534     0.518096    Uiso  ? Sm
   Sm12       1.0     0.670415     0.337313     0.481924    Uiso  ? Sm
   Co1        1.0     0.666383     0.332473     0.833284    Uiso  ? Co
   Co2        1.0     0.330869     0.664724     0.166701    Uiso  ? Co
   Co3        1.0     0.003147     0.003074     0.500000    Uiso  ? Co
   Co4        1.0     0.014952     0.029894     0.722332    Uiso  ? Co
   Co5        1.0     0.318193     0.635791     0.944293    Uiso  ? Co
   Co6        1.0     0.683087     0.366135     0.055670    Uiso  ? Co
   Co7        1.0     0.030166     0.015187     0.277667    Uiso  ? Co
   Co8        1.0     0.302618     0.651592     0.389032    Uiso  ? Co
   Co9        1.0     0.651130     0.301835     0.611000    Uiso  ? Co
   Co10       1.0     0.683171     0.366027     0.944570    Uiso  ? Co
   Co11       1.0     0.649871     0.299399     0.722049    Uiso  ? Co
   Co12       1.0     0.299928     0.649728     0.277956    Uiso  ? Co
   Co13       1.0     0.317342     0.635132     0.055429    Uiso  ? Co
   Co14       1.0     0.016531     0.032094     0.611169    Uiso  ? Co
   Co15       1.0     0.032246     0.016550     0.388820    Uiso  ? Co
   Co16       1.0     0.500302     0.500793     0.000017    Uiso  ? Co
   Co17       1.0     0.000545     0.500881     0.000009    Uiso  ? Co
   Co18       1.0     0.165850     0.332981     0.333360    Uiso  ? Co
   Co19       1.0     0.165847     0.833241     0.333361    Uiso  ? Co
   Co20       1.0     0.833245     0.165632     0.666637    Uiso  ? Co
   Co21       1.0     0.332932     0.165541     0.666640    Uiso  ? Co
   Co22       1.0     0.996072     0.496430     0.890396    Uiso  ? Co
   Co23       1.0     0.500242     0.000252     0.892928    Uiso  ? Co
   Co24       1.0     0.500723     0.496257     0.890381    Uiso  ? Co
   Co25       1.0     0.336812     0.168676     0.776193    Uiso  ? Co
   Co26       1.0     0.832774     0.665140     0.773692    Uiso  ? Co
   Co27       1.0     0.832083     0.168917     0.776216    Uiso  ? Co
   Co28       1.0     0.665230     0.831783     0.226321    Uiso  ? Co
   Co29       1.0     0.168186     0.336885     0.223797    Uiso  ? Co
   Co30       1.0     0.167321     0.830489     0.223805    Uiso  ? Co
   Co31       1.0     0.003966     0.502691     0.109629    Uiso  ? Co
   Co32       1.0     0.499063     0.000269     0.107019    Uiso  ? Co
   Co33       1.0     0.497073     0.501631     0.109610    Uiso  ? Co
   Co34       1.0     0.330244     0.165252     0.557041    Uiso  ? Co
   Co35       1.0     0.834987     0.667394     0.559635    Uiso  ? Co
   Co36       1.0     0.836869     0.166179     0.557063    Uiso  ? Co
   Co37       1.0     0.667939     0.835228     0.440407    Uiso  ? Co
   Co38       1.0     0.165407     0.330462     0.442948    Uiso  ? Co
   Co39       1.0     0.166327     0.836907     0.442944    Uiso  ? Co
   Ti1        1.0     0.665931     0.833248     0.333346    Uiso  ? Ti
   Ti2        1.0     0.500429     0.000866    -0.000007    Uiso  ? Ti
   Ti3        1.0     0.833170     0.665765     0.666626    Uiso  ? Ti
