
#======================================================================
# CRYSTAL DATA
#----------------------------------------------------------------------
data_VESTA_phase_1

_chemical_name_common                  'Sm8 Co28                              '
_cell_length_a                         5.020021
_cell_length_b                         5.020021
_cell_length_c                         24.472980
_cell_angle_alpha                      90.000000
_cell_angle_beta                       90.000000
_cell_angle_gamma                      119.864212
_cell_volume                           534.836768
_space_group_name_H-M_alt              'P 1'
_space_group_IT_number                 1

loop_
_space_group_symop_operation_xyz
   'x, y, z'

loop_
   _atom_site_label
   _atom_site_occupancy
   _atom_site_fract_x
   _atom_site_fract_y
   _atom_site_fract_z
   _atom_site_adp_type
   _atom_site_U_iso_or_equiv
   _atom_site_type_symbol
   Sm1        1.0     0.670121     0.336894     0.527158    Uiso  ? Sm
   Sm2        1.0     0.336894     0.670121     0.027158    Uiso  ? Sm
   Sm3        1.0     0.336894     0.670121     0.472842    Uiso  ? Sm
   Sm4        1.0     0.670121     0.336894     0.972842    Uiso  ? Sm
   Sm5        1.0     0.665565     0.332879     0.667931    Uiso  ? Sm
   Sm6        1.0     0.332879     0.665565     0.167931    Uiso  ? Sm
   Sm7        1.0     0.332879     0.665565     0.332069    Uiso  ? Sm
   Sm8        1.0     0.665565     0.332879     0.832069    Uiso  ? Sm
   Co1        1.0     0.003064     0.003064     0.500000    Uiso  ? Co
   Co2        1.0     0.003064     0.003064     0.000000    Uiso  ? Co
   Co3        1.0     0.031358     0.015860     0.666590    Uiso  ? Co
   Co4        1.0     0.015860     0.031358     0.166590    Uiso  ? Co
   Co5        1.0     0.015860     0.031358     0.333410    Uiso  ? Co
   Co6        1.0     0.031358     0.015860     0.833410    Uiso  ? Co
   Co7        1.0     0.649146     0.298946     0.333271    Uiso  ? Co
   Co8        1.0     0.298946     0.649146     0.833271    Uiso  ? Co
   Co9        1.0     0.298946     0.649146     0.666729    Uiso  ? Co
   Co10       1.0     0.649146     0.298946     0.166729    Uiso  ? Co
   Co11       1.0     0.833221     0.166463     0.250000    Uiso  ? Co
   Co12       1.0     0.166463     0.833221     0.750000    Uiso  ? Co
   Co13       1.0     0.165885     0.333523     0.750000    Uiso  ? Co
   Co14       1.0     0.333523     0.165885     0.250000    Uiso  ? Co
   Co15       1.0     0.666295     0.834183     0.589642    Uiso  ? Co
   Co16       1.0     0.165466     0.836082     0.585649    Uiso  ? Co
   Co17       1.0     0.164434     0.329348     0.585579    Uiso  ? Co
   Co18       1.0     0.834183     0.666295     0.089642    Uiso  ? Co
   Co19       1.0     0.836082     0.165466     0.085649    Uiso  ? Co
   Co20       1.0     0.329348     0.164434     0.085579    Uiso  ? Co
   Co21       1.0     0.329348     0.164434     0.414421    Uiso  ? Co
   Co22       1.0     0.834183     0.666295     0.410358    Uiso  ? Co
   Co23       1.0     0.836082     0.165466     0.414351    Uiso  ? Co
   Co24       1.0     0.165466     0.836082     0.914351    Uiso  ? Co
   Co25       1.0     0.666295     0.834183     0.910358    Uiso  ? Co
   Co26       1.0     0.164434     0.329348     0.914421    Uiso  ? Co
   Ti1        1.0     0.833932     0.667694     0.250000    Uiso  ? Ti
   Ti2        1.0     0.667694     0.833932     0.750000    Uiso  ? Ti
