
#======================================================================
# CRYSTAL DATA
#----------------------------------------------------------------------
data_VESTA_phase_1

_chemical_name_common                  'Sm8 Co28                              '
_cell_length_a                         5.218653
_cell_length_b                         5.218653
_cell_length_c                         23.976088
_cell_angle_alpha                      90.000000
_cell_angle_beta                       90.000000
_cell_angle_gamma                      120.000000
_cell_volume                           565.491060
_space_group_name_H-M_alt              'P 1'
_space_group_IT_number                 1

loop_
_space_group_symop_operation_xyz
   'x, y, z'

loop_
   _atom_site_label
   _atom_site_occupancy
   _atom_site_fract_x
   _atom_site_fract_y
   _atom_site_fract_z
   _atom_site_adp_type
   _atom_site_U_iso_or_equiv
   _atom_site_type_symbol
   Sm1        1.0     0.666667     0.333333     0.524377    Uiso  ? Sm
   Sm2        1.0     0.333333     0.666667     0.024377    Uiso  ? Sm
   Sm3        1.0     0.333333     0.666667     0.475623    Uiso  ? Sm
   Sm4        1.0     0.666667     0.333333     0.975623    Uiso  ? Sm
   Sm5        1.0     0.666667     0.333333     0.660429    Uiso  ? Sm
   Sm6        1.0     0.333333     0.666667     0.160429    Uiso  ? Sm
   Sm7        1.0     0.333333     0.666667     0.339571    Uiso  ? Sm
   Sm8        1.0     0.666667     0.333333     0.839571    Uiso  ? Sm
   Co1        1.0     0.000000     0.000000     0.500000    Uiso  ? Co
   Co2        1.0     0.000000     0.000000     -0.000000    Uiso  ? Co
   Co3        1.0     0.000000     0.000000     0.668507    Uiso  ? Co
   Co4        1.0     0.000000     0.000000     0.168507    Uiso  ? Co
   Co5        1.0     0.000000     0.000000     0.331493    Uiso  ? Co
   Co6        1.0     0.000000     0.000000     0.831493    Uiso  ? Co
   Co7        1.0     0.666667     0.333333     0.331096    Uiso  ? Co
   Co8        1.0     0.333333     0.666667     0.831096    Uiso  ? Co
   Co9        1.0     0.333333     0.666667     0.668904    Uiso  ? Co
   Co10       1.0     0.666667     0.333333     0.168904    Uiso  ? Co
   Co11       1.0     0.668085     0.834043     0.585132    Uiso  ? Co
   Co12       1.0     0.165957     0.834043     0.585132    Uiso  ? Co
   Co13       1.0     0.165957     0.331915     0.585132    Uiso  ? Co
   Co14       1.0     0.834043     0.668085     0.085132    Uiso  ? Co
   Co15       1.0     0.834043     0.165957     0.085132    Uiso  ? Co
   Co16       1.0     0.331915     0.165957     0.085132    Uiso  ? Co
   Co17       1.0     0.331915     0.165957     0.414868    Uiso  ? Co
   Co18       1.0     0.834043     0.668085     0.414868    Uiso  ? Co
   Co19       1.0     0.834043     0.165957     0.414868    Uiso  ? Co
   Co20       1.0     0.165957     0.834043     0.914868    Uiso  ? Co
   Co21       1.0     0.668085     0.834043     0.914868    Uiso  ? Co
   Co22       1.0     0.165957     0.331915     0.914868    Uiso  ? Co
   Ti1        1.0     0.833407     0.666814     0.250000    Uiso  ? Ti
   Ti2        1.0     0.666814     0.833407     0.750000    Uiso  ? Ti
   Ti3        1.0     0.166593     0.333186     0.750000    Uiso  ? Ti
   Ti4        1.0     0.333186     0.166593     0.250000    Uiso  ? Ti
   Ti5        1.0     0.166593     0.833407     0.750000    Uiso  ? Ti
   Ti6        1.0     0.833407     0.166593     0.250000    Uiso  ? Ti
