
#======================================================================
# CRYSTAL DATA
#----------------------------------------------------------------------
data_VESTA_phase_1

_chemical_name_common                  'Sm12 Co42                             '
_cell_length_a                         5.023690
_cell_length_b                         5.017227
_cell_length_c                         36.586330
_cell_angle_alpha                      89.938530
_cell_angle_beta                       90.009758
_cell_angle_gamma                      120.034386
_cell_volume                           798.335031
_space_group_name_H-M_alt              'P 1'
_space_group_IT_number                 1

loop_
_space_group_symop_operation_xyz
   'x, y, z'

loop_
   _atom_site_label
   _atom_site_occupancy
   _atom_site_fract_x
   _atom_site_fract_y
   _atom_site_fract_z
   _atom_site_adp_type
   _atom_site_U_iso_or_equiv
   _atom_site_type_symbol
   Sm1        1.0    -0.000511    -0.000205     0.944467    Uiso  ? Sm
   Sm2        1.0     0.333471     0.666066     0.717516    Uiso  ? Sm
   Sm3        1.0     0.664785     0.333541     0.279118    Uiso  ? Sm
   Sm4        1.0    -0.001368    -0.000609     0.054338    Uiso  ? Sm
   Sm5        1.0     0.334141     0.666562     0.615637    Uiso  ? Sm
   Sm6        1.0     0.668558     0.334327     0.388926    Uiso  ? Sm
   Sm7        1.0     0.001751    -0.001385     0.850211    Uiso  ? Sm
   Sm8        1.0     0.335596     0.665563     0.813563    Uiso  ? Sm
   Sm9        1.0     0.660968     0.333479     0.184913    Uiso  ? Sm
   Sm10       1.0    -0.005671    -0.000072     0.148531    Uiso  ? Sm
   Sm11       1.0     0.338287     0.667782     0.519650    Uiso  ? Sm
   Sm12       1.0     0.671365     0.334458     0.483066    Uiso  ? Sm
   Co1        1.0     0.668325     0.332321     0.831853    Uiso  ? Co
   Co2        1.0     0.328547     0.666678     0.166738    Uiso  ? Co
   Co3        1.0     0.004388     0.000998     0.501392    Uiso  ? Co
   Co4        1.0    -0.003375     0.001777     0.720582    Uiso  ? Co
   Co5        1.0     0.316885     0.682734     0.943466    Uiso  ? Co
   Co6        1.0     0.681828     0.317049     0.055245    Uiso  ? Co
   Co7        1.0     0.029775     0.015704     0.278197    Uiso  ? Co
   Co8        1.0     0.302943     0.651503     0.389906    Uiso  ? Co
   Co9        1.0     0.666097     0.338427     0.612532    Uiso  ? Co
   Co10       1.0     0.681899     0.317147     0.943630    Uiso  ? Co
   Co11       1.0     0.669868     0.330598     0.720528    Uiso  ? Co
   Co12       1.0     0.299705     0.651011     0.278370    Uiso  ? Co
   Co13       1.0     0.315795     0.681835     0.055080    Uiso  ? Co
   Co14       1.0     0.002062    -0.005047     0.612663    Uiso  ? Co
   Co15       1.0     0.033995     0.016893     0.389739    Uiso  ? Co
   Co16       1.0     0.499140    -0.000426    -0.000610    Uiso  ? Co
   Co17       1.0    -0.000905     0.499386    -0.000624    Uiso  ? Co
   Co18       1.0     0.166858     0.334136     0.334048    Uiso  ? Co
   Co19       1.0     0.167084     0.834353     0.334040    Uiso  ? Co
   Co20       1.0     0.833666     0.666099     0.666872    Uiso  ? Co
   Co21       1.0     0.833587     0.166309     0.666162    Uiso  ? Co
   Co22       1.0     0.333461     0.166125     0.666709    Uiso  ? Co
   Co23       1.0    -0.004246     0.497468     0.889338    Uiso  ? Co
   Co24       1.0     0.502350     0.004146     0.889308    Uiso  ? Co
   Co25       1.0     0.499644     0.500080     0.891934    Uiso  ? Co
   Co26       1.0     0.335708     0.166552     0.773693    Uiso  ? Co
   Co27       1.0     0.833774     0.664009     0.773819    Uiso  ? Co
   Co28       1.0     0.832937     0.167920     0.774121    Uiso  ? Co
   Co29       1.0     0.663984     0.834175     0.226653    Uiso  ? Co
   Co30       1.0     0.165482     0.337487     0.224064    Uiso  ? Co
   Co31       1.0     0.166197     0.831540     0.224042    Uiso  ? Co
   Co32       1.0     0.002337     0.501867     0.109447    Uiso  ? Co
   Co33       1.0     0.495074     0.995555     0.109401    Uiso  ? Co
   Co34       1.0     0.497367     0.498717     0.106783    Uiso  ? Co
   Co35       1.0     0.332671     0.165477     0.559263    Uiso  ? Co
   Co36       1.0     0.837825     0.669561     0.559069    Uiso  ? Co
   Co37       1.0     0.836978     0.167125     0.559606    Uiso  ? Co
   Co38       1.0     0.668826     0.833688     0.441410    Uiso  ? Co
   Co39       1.0     0.167242     0.330162     0.444024    Uiso  ? Co
   Co40       1.0     0.166839     0.835891     0.444026    Uiso  ? Co
   Ti1        1.0     0.666871     0.834042     0.334087    Uiso  ? Ti
   Ti2        1.0     0.499142     0.499426    -0.000543    Uiso  ? Ti
