
#======================================================================
# CRYSTAL DATA
#----------------------------------------------------------------------
data_VESTA_phase_1

_chemical_name_common                  'Sm12 Co42                             '
_cell_length_a                         4.973024
_cell_length_b                         5.171023
_cell_length_c                         36.901539
_cell_angle_alpha                      89.926033
_cell_angle_beta                       89.963173
_cell_angle_gamma                      119.951897
_cell_volume                           822.207858
_space_group_name_H-M_alt              'P 1'
_space_group_IT_number                 1

loop_
_space_group_symop_operation_xyz
   'x, y, z'

loop_
   _atom_site_label
   _atom_site_occupancy
   _atom_site_fract_x
   _atom_site_fract_y
   _atom_site_fract_z
   _atom_site_adp_type
   _atom_site_U_iso_or_equiv
   _atom_site_type_symbol
   Sm1        1.0     0.998954     0.998704     0.942116    Uiso  ? Sm
   Sm2        1.0     0.334037     0.666685     0.724543    Uiso  ? Sm
   Sm3        1.0     0.665969     0.334029     0.275809    Uiso  ? Sm
   Sm4        1.0     0.996719     0.998551     0.057810    Uiso  ? Sm
   Sm5        1.0     0.336017     0.667351     0.608847    Uiso  ? Sm
   Sm6        1.0     0.668055     0.334619     0.390962    Uiso  ? Sm
   Sm7        1.0     0.000940     0.000366     0.850712    Uiso  ? Sm
   Sm8        1.0     0.332375     0.664979     0.815968    Uiso  ? Sm
   Sm9        1.0     0.664670     0.336743     0.184078    Uiso  ? Sm
   Sm10       1.0     0.995031     0.000032     0.149281    Uiso  ? Sm
   Sm11       1.0     0.338497     0.667191     0.517361    Uiso  ? Sm
   Sm12       1.0     0.669119     0.331063     0.482606    Uiso  ? Sm
   Co1        1.0     0.666816     0.332915     0.833308    Uiso  ? Co
   Co2        1.0     0.330781     0.668349     0.166557    Uiso  ? Co
   Co3        1.0     0.002909    -0.001059     0.500079    Uiso  ? Co
   Co4        1.0     0.030908     0.038982     0.723233    Uiso  ? Co
   Co5        1.0     0.301794     0.626096     0.943381    Uiso  ? Co
   Co6        1.0     0.692999     0.330801     0.056472    Uiso  ? Co
   Co7        1.0     0.996635     0.967620     0.276440    Uiso  ? Co
   Co8        1.0     0.338165     0.702175     0.390217    Uiso  ? Co
   Co9        1.0     0.639845     0.334370     0.610151    Uiso  ? Co
   Co10       1.0     0.697677     0.371104     0.943854    Uiso  ? Co
   Co11       1.0     0.635330     0.294774     0.722855    Uiso  ? Co
   Co12       1.0     0.334685     0.700230     0.276870    Uiso  ? Co
   Co13       1.0     0.298419     0.664158     0.056336    Uiso  ? Co
   Co14       1.0     0.034043     0.002376     0.610293    Uiso  ? Co
   Co15       1.0    -0.001477    -0.032866     0.389826    Uiso  ? Co
   Co16       1.0     0.999388     0.500123     0.000012    Uiso  ? Co
   Co17       1.0     0.167068     0.834539     0.333345    Uiso  ? Co
   Co18       1.0     0.333557     0.165704     0.666644    Uiso  ? Co
   Co19       1.0     0.995288     0.495331     0.888898    Uiso  ? Co
   Co20       1.0     0.499396    -0.000120     0.892569    Uiso  ? Co
   Co21       1.0     0.500009     0.495166     0.890450    Uiso  ? Co
   Co22       1.0     0.337265     0.169252     0.777765    Uiso  ? Co
   Co23       1.0     0.833530     0.664987     0.774118    Uiso  ? Co
   Co24       1.0     0.833178     0.169809     0.776190    Uiso  ? Co
   Co25       1.0     0.663423     0.832570     0.223773    Uiso  ? Co
   Co26       1.0     0.165683     0.335084     0.225635    Uiso  ? Co
   Co27       1.0     0.167707     0.830118     0.222131    Uiso  ? Co
   Co28       1.0     0.000322     0.501293     0.111206    Uiso  ? Co
   Co29       1.0     0.494961     0.994853     0.108998    Uiso  ? Co
   Co30       1.0     0.497401     0.499872     0.108118    Uiso  ? Co
   Co31       1.0     0.332772     0.165479     0.555419    Uiso  ? Co
   Co32       1.0     0.837815     0.671240     0.557669    Uiso  ? Co
   Co33       1.0     0.835555     0.166386     0.558467    Uiso  ? Co
   Co34       1.0     0.671016     0.836039     0.442923    Uiso  ? Co
   Co35       1.0     0.168522     0.333614     0.441007    Uiso  ? Co
   Co36       1.0     0.166587     0.838340     0.444557    Uiso  ? Co
   Ti1        1.0     0.667039     0.834652     0.333325    Uiso  ? Ti
   Ti2        1.0     0.497958     0.498831     0.001071    Uiso  ? Ti
   Ti3        1.0     0.834889     0.666404     0.667775    Uiso  ? Ti
   Ti4        1.0     0.834427     0.166362     0.665659    Uiso  ? Ti
   Ti5        1.0     0.498313     0.999284     0.998841    Uiso  ? Ti
   Ti6        1.0     0.167021     0.334448     0.333468    Uiso  ? Ti
