
#======================================================================
# CRYSTAL DATA
#----------------------------------------------------------------------
data_VESTA_phase_1

_chemical_name_common                  'Sm8 Co28                              '
_cell_length_a                         4.988859
_cell_length_b                         4.988859
_cell_length_c                         24.637962
_cell_angle_alpha                      90.000000
_cell_angle_beta                       90.000000
_cell_angle_gamma                      116.816872
_cell_volume                           547.258652
_space_group_name_H-M_alt              'P 1'
_space_group_IT_number                 1

loop_
_space_group_symop_operation_xyz
   'x, y, z'

loop_
   _atom_site_label
   _atom_site_occupancy
   _atom_site_fract_x
   _atom_site_fract_y
   _atom_site_fract_z
   _atom_site_adp_type
   _atom_site_U_iso_or_equiv
   _atom_site_type_symbol
   Sm1        1.0     0.667694     0.332306     0.526152    Uiso  ? Sm
   Sm2        1.0     0.332306     0.667694     0.026152    Uiso  ? Sm
   Sm3        1.0     0.332306     0.667694     0.473848    Uiso  ? Sm
   Sm4        1.0     0.667694     0.332306     0.973848    Uiso  ? Sm
   Sm5        1.0     0.666488     0.333512     0.662876    Uiso  ? Sm
   Sm6        1.0     0.333512     0.666488     0.162876    Uiso  ? Sm
   Sm7        1.0     0.333512     0.666488     0.337124    Uiso  ? Sm
   Sm8        1.0     0.666488     0.333512     0.837124    Uiso  ? Sm
   Co1        1.0     -0.000000     0.000000     0.500000    Uiso  ? Co
   Co2        1.0     -0.000000     0.000000     -0.000000    Uiso  ? Co
   Co3        1.0     0.017588    -0.017588     0.665403    Uiso  ? Co
   Co4        1.0    -0.017588     0.017588     0.165403    Uiso  ? Co
   Co5        1.0    -0.017588     0.017588     0.334597    Uiso  ? Co
   Co6        1.0     0.017588    -0.017588     0.834597    Uiso  ? Co
   Co7        1.0     0.683310     0.316690     0.334725    Uiso  ? Co
   Co8        1.0     0.316690     0.683310     0.834725    Uiso  ? Co
   Co9        1.0     0.316690     0.683310     0.665275    Uiso  ? Co
   Co10       1.0     0.683310     0.316690     0.165275    Uiso  ? Co
   Co11       1.0     0.833377     0.166623     0.250000    Uiso  ? Co
   Co12       1.0     0.166623     0.833377     0.750000    Uiso  ? Co
   Co13       1.0     0.668530     0.835415     0.587424    Uiso  ? Co
   Co14       1.0     0.164693     0.835307     0.582763    Uiso  ? Co
   Co15       1.0     0.164585     0.331470     0.587424    Uiso  ? Co
   Co16       1.0     0.835415     0.668530     0.087424    Uiso  ? Co
   Co17       1.0     0.835307     0.164693     0.082763    Uiso  ? Co
   Co18       1.0     0.331470     0.164585     0.087424    Uiso  ? Co
   Co19       1.0     0.331470     0.164585     0.412576    Uiso  ? Co
   Co20       1.0     0.835415     0.668530     0.412576    Uiso  ? Co
   Co21       1.0     0.835307     0.164693     0.417237    Uiso  ? Co
   Co22       1.0     0.164693     0.835307     0.917237    Uiso  ? Co
   Co23       1.0     0.668530     0.835415     0.912576    Uiso  ? Co
   Co24       1.0     0.164585     0.331470     0.912576    Uiso  ? Co
   Ti1        1.0     0.833747     0.666473     0.250000    Uiso  ? Ti
   Ti2        1.0     0.666473     0.833747     0.750000    Uiso  ? Ti
   Ti3        1.0     0.166253     0.333527     0.750000    Uiso  ? Ti
   Ti4        1.0     0.333527     0.166253     0.250000    Uiso  ? Ti
