
#======================================================================
# CRYSTAL DATA
#----------------------------------------------------------------------
data_VESTA_phase_1

_chemical_name_common                  'Sm12 Co42'
_cell_length_a                         5.046275
_cell_length_b                         5.042151
_cell_length_c                         36.337322
_cell_angle_alpha                      89.701866
_cell_angle_beta                       89.939163
_cell_angle_gamma                      119.953995
_cell_volume                           801.053926
_space_group_name_H-M_alt              'P 1'
_space_group_IT_number                 1

loop_
_space_group_symop_operation_xyz
   'x, y, z'

loop_
   _atom_site_label
   _atom_site_occupancy
   _atom_site_fract_x
   _atom_site_fract_y
   _atom_site_fract_z
   _atom_site_adp_type
   _atom_site_U_iso_or_equiv
   _atom_site_type_symbol
   Sm1        1.0    -0.000368     0.000083     0.948487    Uiso  ? Sm
   Sm2        1.0     0.335087     0.667583     0.719035    Uiso  ? Sm
   Sm3        1.0     0.665728     0.332845     0.279034    Uiso  ? Sm
   Sm4        1.0     0.000469     0.000385     0.050432    Uiso  ? Sm
   Sm5        1.0     0.334017     0.667089     0.616870    Uiso  ? Sm
   Sm6        1.0     0.664973     0.332151     0.379317    Uiso  ? Sm
   Sm7        1.0     0.000189     0.000350     0.852168    Uiso  ? Sm
   Sm8        1.0     0.333854     0.666999     0.815384    Uiso  ? Sm
   Sm9        1.0     0.667582     0.334024     0.183268    Uiso  ? Sm
   Sm10       1.0     0.000845     0.000382     0.146734    Uiso  ? Sm
   Sm11       1.0     0.332019     0.665617     0.519868    Uiso  ? Sm
   Sm12       1.0     0.665172     0.332046     0.481338    Uiso  ? Sm
   Co1        1.0     0.666777     0.333573     0.833883    Uiso  ? Co
   Co2        1.0     0.333914     0.667008     0.164589    Uiso  ? Co
   Co3        1.0    -0.001447    -0.001173     0.504295    Uiso  ? Co
   Co4        1.0     0.000745     0.000691     0.722698    Uiso  ? Co
   Co5        1.0     0.336198     0.667968     0.945173    Uiso  ? Co
   Co6        1.0     0.667970     0.334710     0.053360    Uiso  ? Co
   Co7        1.0     0.003536     0.001764     0.274860    Uiso  ? Co
   Co8        1.0     0.669481     0.335017     0.614788    Uiso  ? Co
   Co9        1.0     0.663180     0.332231     0.945505    Uiso  ? Co
   Co10       1.0     0.669170     0.334567     0.721937    Uiso  ? Co
   Co11       1.0     0.328257     0.664133     0.278026    Uiso  ? Co
   Co12       1.0     0.333001     0.666185     0.053580    Uiso  ? Co
   Co13       1.0    -0.001630    -0.000855     0.613567    Uiso  ? Co
   Co14       1.0    -0.002056    -0.001452     0.388438    Uiso  ? Co
   Co15       1.0     0.499679    -0.000273    -0.000501    Uiso  ? Co
   Co16       1.0     0.499619     0.500347    -0.000511    Uiso  ? Co
   Co17       1.0    -0.000044     0.500136    -0.000751    Uiso  ? Co
   Co18       1.0     0.158521     0.320640     0.329949    Uiso  ? Co
   Co19       1.0     0.158763     0.837734     0.329955    Uiso  ? Co
   Co20       1.0     0.675518     0.837609     0.329684    Uiso  ? Co
   Co21       1.0     0.835529     0.668852     0.668219    Uiso  ? Co
   Co22       1.0     0.835454     0.166703     0.668210    Uiso  ? Co
   Co23       1.0     0.333416     0.166712     0.668135    Uiso  ? Co
   Co24       1.0    -0.002332     0.499073     0.892038    Uiso  ? Co
   Co25       1.0     0.501438     0.002665     0.891842    Uiso  ? Co
   Co26       1.0     0.501363     0.499179     0.891805    Uiso  ? Co
   Co27       1.0     0.337767     0.168816     0.775679    Uiso  ? Co
   Co28       1.0     0.832906     0.664231     0.775758    Uiso  ? Co
   Co29       1.0     0.832934     0.168570     0.775768    Uiso  ? Co
   Co30       1.0     0.661659     0.831163     0.223101    Uiso  ? Co
   Co31       1.0     0.170672     0.339944     0.222786    Uiso  ? Co
   Co32       1.0     0.170661     0.831404     0.222802    Uiso  ? Co
   Co33       1.0     0.002030     0.501050     0.106941    Uiso  ? Co
   Co34       1.0     0.500501    -0.000450     0.106894    Uiso  ? Co
   Co35       1.0     0.500542     0.501055     0.106934    Uiso  ? Co
   Co36       1.0     0.336171     0.167811     0.560732    Uiso  ? Co
   Co37       1.0     0.831730     0.663791     0.560536    Uiso  ? Co
   Co38       1.0     0.831786     0.167454     0.560551    Uiso  ? Co
   Co39       1.0     0.683859     0.841442     0.445383    Uiso  ? Co
   Co40       1.0     0.155799     0.313540     0.445428    Uiso  ? Co
   Co41       1.0     0.155677     0.841330     0.445431    Uiso  ? Co
   Zr1        1.0     0.331718     0.665553     0.390569    Uiso  ? Zr
