
#======================================================================
# CRYSTAL DATA
#----------------------------------------------------------------------
data_VESTA_phase_1

_chemical_name_common                  'Sm8 Co28'
_cell_length_a                         5.061707
_cell_length_b                         5.061707
_cell_length_c                         24.258060
_cell_angle_alpha                      90.000000
_cell_angle_beta                       90.000000
_cell_angle_gamma                      120.000000
_cell_volume                           538.245980
_space_group_name_H-M_alt              'P 1'
_space_group_IT_number                 1

loop_
_space_group_symop_operation_xyz
   'x, y, z'

loop_
   _atom_site_label
   _atom_site_occupancy
   _atom_site_fract_x
   _atom_site_fract_y
   _atom_site_fract_z
   _atom_site_adp_type
   _atom_site_U_iso_or_equiv
   _atom_site_type_symbol
   Sm1        1.0     0.666667     0.333333     0.529457    Uiso  ? Sm
   Sm2        1.0     0.333333     0.666667     0.025634    Uiso  ? Sm
   Sm3        1.0     0.333333     0.666667     0.471456    Uiso  ? Sm
   Sm4        1.0     0.666667     0.333333     0.970499    Uiso  ? Sm
   Sm5        1.0     0.666667     0.333333     0.674169    Uiso  ? Sm
   Sm6        1.0     0.333333     0.666667     0.169056    Uiso  ? Sm
   Sm7        1.0     0.333333     0.666667     0.318568    Uiso  ? Sm
   Sm8        1.0     0.666667     0.333333     0.826537    Uiso  ? Sm
   Co1        1.0     0.000000     0.000000     0.506358    Uiso  ? Co
   Co2        1.0     0.000000     0.000000     0.998748    Uiso  ? Co
   Co3        1.0     0.000000     0.000000     0.669014    Uiso  ? Co
   Co4        1.0     0.000000     0.000000     0.163011    Uiso  ? Co
   Co5        1.0     0.000000     0.000000     0.333770    Uiso  ? Co
   Co6        1.0     0.000000     0.000000     0.831886    Uiso  ? Co
   Co7        1.0     0.333333     0.666667     0.831539    Uiso  ? Co
   Co8        1.0     0.333333     0.666667     0.671119    Uiso  ? Co
   Co9        1.0     0.666667     0.333333     0.168069    Uiso  ? Co
   Co10       1.0     0.668578     0.834289     0.750732    Uiso  ? Co
   Co11       1.0     0.839654     0.679308     0.245603    Uiso  ? Co
   Co12       1.0     0.839654     0.160346     0.245603    Uiso  ? Co
   Co13       1.0     0.165711     0.834289     0.750732    Uiso  ? Co
   Co14       1.0     0.165711     0.331422     0.750732    Uiso  ? Co
   Co15       1.0     0.320692     0.160346     0.245603    Uiso  ? Co
   Co16       1.0     0.663433     0.831716     0.590112    Uiso  ? Co
   Co17       1.0     0.168284     0.831716     0.590112    Uiso  ? Co
   Co18       1.0     0.168284     0.336567     0.590112    Uiso  ? Co
   Co19       1.0     0.832451     0.664902     0.085089    Uiso  ? Co
   Co20       1.0     0.832451     0.167549     0.085089    Uiso  ? Co
   Co21       1.0     0.335098     0.167549     0.085089    Uiso  ? Co
   Co22       1.0     0.314481     0.157241     0.418480    Uiso  ? Co
   Co23       1.0     0.842759     0.685519     0.418480    Uiso  ? Co
   Co24       1.0     0.842759     0.157241     0.418480    Uiso  ? Co
   Co25       1.0     0.165583     0.834417     0.911522    Uiso  ? Co
   Co26       1.0     0.668835     0.834417     0.911522    Uiso  ? Co
   Co27       1.0     0.165583     0.331165     0.911522    Uiso  ? Co
   Zr1        1.0     0.666667     0.333333     0.336496    Uiso  ? Zr
