
#======================================================================
# CRYSTAL DATA
#----------------------------------------------------------------------
data_VESTA_phase_1

_chemical_name_common                  'Sm8 Co28'
_cell_length_a                         5.076298
_cell_length_b                         5.076298
_cell_length_c                         24.165884
_cell_angle_alpha                      90.000000
_cell_angle_beta                       90.000000
_cell_angle_gamma                      120.000000
_cell_volume                           539.296469
_space_group_name_H-M_alt              'P 1'
_space_group_IT_number                 1

loop_
_space_group_symop_operation_xyz
   'x, y, z'

loop_
   _atom_site_label
   _atom_site_occupancy
   _atom_site_fract_x
   _atom_site_fract_y
   _atom_site_fract_z
   _atom_site_adp_type
   _atom_site_U_iso_or_equiv
   _atom_site_type_symbol
   Sm1        1.0     0.666667     0.333333     0.535500    Uiso  ? Sm
   Sm2        1.0     0.333333     0.666667     0.027609    Uiso  ? Sm
   Sm3        1.0     0.333333     0.666667     0.464500    Uiso  ? Sm
   Sm4        1.0     0.666667     0.333333     0.972391    Uiso  ? Sm
   Sm5        1.0     0.666667     0.333333     0.677106    Uiso  ? Sm
   Sm6        1.0     0.333333     0.666667     0.171086    Uiso  ? Sm
   Sm7        1.0     0.333333     0.666667     0.322894    Uiso  ? Sm
   Sm8        1.0     0.666667     0.333333     0.828914    Uiso  ? Sm
   Co1        1.0     0.000000     0.000000     0.000000    Uiso  ? Co
   Co2        1.0     0.000000     0.000000     0.669895    Uiso  ? Co
   Co3        1.0     0.000000     0.000000     0.166093    Uiso  ? Co
   Co4        1.0     0.000000     0.000000     0.330105    Uiso  ? Co
   Co5        1.0     0.000000     0.000000     0.833907    Uiso  ? Co
   Co6        1.0     0.666667     0.333333     0.326418    Uiso  ? Co
   Co7        1.0     0.333333     0.666667     0.833231    Uiso  ? Co
   Co8        1.0     0.333333     0.666667     0.673582    Uiso  ? Co
   Co9        1.0     0.666667     0.333333     0.166769    Uiso  ? Co
   Co10       1.0     0.669408     0.834704     0.752515    Uiso  ? Co
   Co11       1.0     0.834704     0.669408     0.247485    Uiso  ? Co
   Co12       1.0     0.834704     0.165296     0.247485    Uiso  ? Co
   Co13       1.0     0.165296     0.834704     0.752515    Uiso  ? Co
   Co14       1.0     0.165296     0.330592     0.752515    Uiso  ? Co
   Co15       1.0     0.330592     0.165296     0.247485    Uiso  ? Co
   Co16       1.0     0.657638     0.828819     0.591703    Uiso  ? Co
   Co17       1.0     0.171181     0.828819     0.591703    Uiso  ? Co
   Co18       1.0     0.171181     0.342362     0.591703    Uiso  ? Co
   Co19       1.0     0.833858     0.667717     0.086544    Uiso  ? Co
   Co20       1.0     0.833858     0.166142     0.086544    Uiso  ? Co
   Co21       1.0     0.332283     0.166142     0.086544    Uiso  ? Co
   Co22       1.0     0.342362     0.171181     0.408297    Uiso  ? Co
   Co23       1.0     0.828819     0.657638     0.408297    Uiso  ? Co
   Co24       1.0     0.828819     0.171181     0.408297    Uiso  ? Co
   Co25       1.0     0.166142     0.833858     0.913456    Uiso  ? Co
   Co26       1.0     0.667717     0.833858     0.913456    Uiso  ? Co
   Co27       1.0     0.166142     0.332283     0.913456    Uiso  ? Co
   Zr1        1.0     0.000000     0.000000     0.500000    Uiso  ? Zr
