
#======================================================================
# CRYSTAL DATA
#----------------------------------------------------------------------
data_VESTA_phase_1

_chemical_name_common                  'Sm12 Co42                             '
_cell_length_a                         5.038984
_cell_length_b                         5.038984
_cell_length_c                         36.070026
_cell_angle_alpha                      90.000000
_cell_angle_beta                       90.000000
_cell_angle_gamma                      120.000000
_cell_volume                           793.164197
_space_group_name_H-M_alt              'P 1'
_space_group_IT_number                 1

loop_
_space_group_symop_operation_xyz
   'x, y, z'

loop_
   _atom_site_label
   _atom_site_occupancy
   _atom_site_fract_x
   _atom_site_fract_y
   _atom_site_fract_z
   _atom_site_adp_type
   _atom_site_U_iso_or_equiv
   _atom_site_type_symbol
   Sm1        1.0     0.000000     0.000000     0.949108    Uiso  ? Sm
   Sm2        1.0     0.333333     0.666667     0.718060    Uiso  ? Sm
   Sm3        1.0     0.666667     0.333333     0.281736    Uiso  ? Sm
   Sm4        1.0     0.000000     -0.000000     0.051598    Uiso  ? Sm
   Sm5        1.0     0.333333     0.666667     0.615274    Uiso  ? Sm
   Sm6        1.0     0.666667     0.333333     0.384225    Uiso  ? Sm
   Sm7        1.0     0.000000     0.000000     0.852181    Uiso  ? Sm
   Sm8        1.0     0.333333     0.666667     0.815121    Uiso  ? Sm
   Sm9        1.0     0.666667     0.333333     0.186858    Uiso  ? Sm
   Sm10       1.0     0.000000     -0.000000     0.146476    Uiso  ? Sm
   Sm11       1.0     0.333333     0.666667     0.518212    Uiso  ? Sm
   Sm12       1.0     0.666667     0.333333     0.481152    Uiso  ? Sm
   Co1        1.0     0.666667     0.333333     0.833538    Uiso  ? Co
   Co2        1.0     0.000000     0.000000     0.499795    Uiso  ? Co
   Co3        1.0     0.000000     0.000000     0.721283    Uiso  ? Co
   Co4        1.0     0.333333     0.666667     0.946017    Uiso  ? Co
   Co5        1.0     0.666667     0.333333     0.055111    Uiso  ? Co
   Co6        1.0     0.000000     0.000000     0.278223    Uiso  ? Co
   Co7        1.0     0.333333     0.666667     0.387316    Uiso  ? Co
   Co8        1.0     0.666667     0.333333     0.612051    Uiso  ? Co
   Co9        1.0     0.666667     0.333333     0.946201    Uiso  ? Co
   Co10       1.0     0.666667     0.333333     0.721122    Uiso  ? Co
   Co11       1.0     0.333333     0.666667     0.277813    Uiso  ? Co
   Co12       1.0     0.333333     0.666667     0.055520    Uiso  ? Co
   Co13       1.0     0.000000     0.000000     0.612211    Uiso  ? Co
   Co14       1.0     0.000000     -0.000000     0.387132    Uiso  ? Co
   Co15       1.0     0.499838    -0.000324     0.000832    Uiso  ? Co
   Co16       1.0     0.499838     0.500162     0.000832    Uiso  ? Co
   Co17       1.0     0.000324     0.500162     0.000832    Uiso  ? Co
   Co18       1.0     0.166829     0.333657     0.332501    Uiso  ? Co
   Co19       1.0     0.166829     0.833171     0.332501    Uiso  ? Co
   Co20       1.0     0.666343     0.833171     0.332501    Uiso  ? Co
   Co21       1.0     0.833333     0.666667     0.666667    Uiso  ? Co
   Co22       1.0     0.833333     0.166667     0.666667    Uiso  ? Co
   Co23       1.0     0.333333     0.166667     0.666667    Uiso  ? Co
   Co24       1.0     0.997626     0.498813     0.892266    Uiso  ? Co
   Co25       1.0     0.501187     0.002374     0.892266    Uiso  ? Co
   Co26       1.0     0.501187     0.498813     0.892266    Uiso  ? Co
   Co27       1.0     0.335337     0.167668     0.775038    Uiso  ? Co
   Co28       1.0     0.832332     0.664663     0.775038    Uiso  ? Co
   Co29       1.0     0.832332     0.167668     0.775038    Uiso  ? Co
   Co30       1.0     0.667519     0.833759     0.223714    Uiso  ? Co
   Co31       1.0     0.166241     0.332481     0.223714    Uiso  ? Co
   Co32       1.0     0.166241     0.833759     0.223714    Uiso  ? Co
   Co33       1.0    -0.000852     0.499574     0.109619    Uiso  ? Co
   Co34       1.0     0.500426     0.000852     0.109619    Uiso  ? Co
   Co35       1.0     0.500426     0.499574     0.109619    Uiso  ? Co
   Co36       1.0     0.331330     0.165665     0.558295    Uiso  ? Co
   Co37       1.0     0.834335     0.668670     0.558295    Uiso  ? Co
   Co38       1.0     0.834335     0.165665     0.558295    Uiso  ? Co
   Co39       1.0     0.669041     0.834520     0.441068    Uiso  ? Co
   Co40       1.0     0.165480     0.330959     0.441068    Uiso  ? Co
   Co41       1.0     0.165480     0.834520     0.441068    Uiso  ? Co
   V1         1.0     0.333333     0.666667     0.166667    Uiso  ? V
