
#======================================================================
# CRYSTAL DATA
#----------------------------------------------------------------------
data_VESTA_phase_1

_chemical_name_common                  'Sm12 Co42                             '
_cell_length_a                         4.975644
_cell_length_b                         4.975966
_cell_length_c                         36.492115
_cell_angle_alpha                      90.332298
_cell_angle_beta                       89.665840
_cell_angle_gamma                      118.819939
_cell_volume                           791.569183
_space_group_name_H-M_alt              'P 1'
_space_group_IT_number                 1

loop_
_space_group_symop_operation_xyz
   'x, y, z'

loop_
   _atom_site_label
   _atom_site_occupancy
   _atom_site_fract_x
   _atom_site_fract_y
   _atom_site_fract_z
   _atom_site_adp_type
   _atom_site_U_iso_or_equiv
   _atom_site_type_symbol
   Sm1        1.0     0.999460     0.000524     0.948717    Uiso  ? Sm
   Sm2        1.0     0.336614     0.663443     0.718593    Uiso  ? Sm
   Sm3        1.0     0.662512     0.337426     0.281246    Uiso  ? Sm
   Sm4        1.0     0.998833     0.001147     0.051125    Uiso  ? Sm
   Sm5        1.0     0.339347     0.660666     0.616181    Uiso  ? Sm
   Sm6        1.0     0.660912     0.339172     0.383457    Uiso  ? Sm
   Sm7        1.0    -0.000076     0.000077     0.852224    Uiso  ? Sm
   Sm8        1.0     0.334947     0.665062     0.815019    Uiso  ? Sm
   Sm9        1.0     0.663848     0.336182     0.184820    Uiso  ? Sm
   Sm10       1.0     0.998748     0.001252     0.147473    Uiso  ? Sm
   Sm11       1.0     0.343165     0.656794     0.519287    Uiso  ? Sm
   Sm12       1.0     0.675280     0.324722     0.483547    Uiso  ? Sm
   Co1        1.0     0.667540     0.332479     0.833589    Uiso  ? Co
   Co2        1.0     0.330651     0.669280     0.166265    Uiso  ? Co
   Co3        1.0     0.013772     0.986257     0.500579    Uiso  ? Co
   Co4        1.0     0.995785     0.004424     0.721893    Uiso  ? Co
   Co5        1.0     0.338148     0.661811     0.945608    Uiso  ? Co
   Co6        1.0     0.659396     0.340649     0.054280    Uiso  ? Co
   Co7        1.0     0.003977     0.996174     0.278362    Uiso  ? Co
   Co8        1.0     0.326753     0.673284     0.387638    Uiso  ? Co
   Co9        1.0     0.671731     0.328252     0.612789    Uiso  ? Co
   Co10       1.0     0.660855     0.339163     0.945738    Uiso  ? Co
   Co11       1.0     0.677362     0.322507     0.721813    Uiso  ? Co
   Co12       1.0     0.319680     0.680279     0.277636    Uiso  ? Co
   Co13       1.0     0.338155     0.661786     0.054212    Uiso  ? Co
   Co14       1.0     0.007032     0.992845     0.613602    Uiso  ? Co
   Co15       1.0     0.992602     0.007340     0.385360    Uiso  ? Co
   Co16       1.0     0.499080     0.000627    -0.000045    Uiso  ? Co
   Co17       1.0     0.499065     0.500900    -0.000056    Uiso  ? Co
   Co18       1.0    -0.000688     0.500787    -0.000053    Uiso  ? Co
   Co19       1.0     0.163630     0.341179     0.331748    Uiso  ? Co
   Co20       1.0     0.162455     0.837774     0.333140    Uiso  ? Co
   Co21       1.0     0.658764     0.836402     0.331753    Uiso  ? Co
   Co22       1.0     0.836980     0.661208     0.667850    Uiso  ? Co
   Co23       1.0     0.838091     0.161875     0.666922    Uiso  ? Co
   Co24       1.0     0.338762     0.163067     0.667836    Uiso  ? Co
   Co25       1.0     0.998604     0.499511     0.892422    Uiso  ? Co
   Co26       1.0     0.500490     0.001379     0.892421    Uiso  ? Co
   Co27       1.0     0.501285     0.498708     0.891426    Uiso  ? Co
   Co28       1.0     0.336661     0.165379     0.774835    Uiso  ? Co
   Co29       1.0     0.834620     0.663360     0.774815    Uiso  ? Co
   Co30       1.0     0.833652     0.166408     0.776143    Uiso  ? Co
   Co31       1.0     0.662129     0.835467     0.225132    Uiso  ? Co
   Co32       1.0     0.164673     0.337877     0.225123    Uiso  ? Co
   Co33       1.0     0.164134     0.835816     0.223474    Uiso  ? Co
   Co34       1.0     0.000239     0.502035     0.107248    Uiso  ? Co
   Co35       1.0     0.497948    -0.000303     0.107242    Uiso  ? Co
   Co36       1.0     0.496837     0.503210     0.108515    Uiso  ? Co
   Co37       1.0     0.336243     0.154879     0.559750    Uiso  ? Co
   Co38       1.0     0.845104     0.663819     0.559723    Uiso  ? Co
   Co39       1.0     0.841883     0.158097     0.559721    Uiso  ? Co
   Co40       1.0     0.170481     0.342061     0.440560    Uiso  ? Co
   Co41       1.0     0.657871     0.829417     0.440571    Uiso  ? Co
   V1         1.0     0.143978     0.856066     0.440733    Uiso  ? V
