
#======================================================================
# CRYSTAL DATA
#----------------------------------------------------------------------
data_VESTA_phase_1

_chemical_name_common                  'Sm12 Co42                             '
_cell_length_a                         5.024562
_cell_length_b                         5.025075
_cell_length_c                         36.218170
_cell_angle_alpha                      89.999298
_cell_angle_beta                       90.001663
_cell_angle_gamma                      120.002617
_cell_volume                           791.929404
_space_group_name_H-M_alt              'P 1'
_space_group_IT_number                 1

loop_
_space_group_symop_operation_xyz
   'x, y, z'

loop_
   _atom_site_label
   _atom_site_occupancy
   _atom_site_fract_x
   _atom_site_fract_y
   _atom_site_fract_z
   _atom_site_adp_type
   _atom_site_U_iso_or_equiv
   _atom_site_type_symbol
   Sm1        1.0    -0.000366    -0.000326     0.948569    Uiso  ? Sm
   Sm2        1.0     0.333560     0.666940     0.717930    Uiso  ? Sm
   Sm3        1.0     0.666576     0.333351     0.281716    Uiso  ? Sm
   Sm4        1.0    -0.000150    -0.000189     0.051173    Uiso  ? Sm
   Sm5        1.0     0.333977     0.666973     0.614975    Uiso  ? Sm
   Sm6        1.0     0.666522     0.333250     0.382732    Uiso  ? Sm
   Sm7        1.0    -0.000297    -0.000040     0.851794    Uiso  ? Sm
   Sm8        1.0     0.333069     0.666679     0.814780    Uiso  ? Sm
   Sm9        1.0     0.666546     0.333320     0.185074    Uiso  ? Sm
   Sm10       1.0    -0.000151    -0.000057     0.147952    Uiso  ? Sm
   Sm11       1.0     0.333665     0.666751     0.517125    Uiso  ? Sm
   Sm12       1.0     0.666758     0.333345     0.479438    Uiso  ? Sm
   Co1        1.0     0.666367     0.333324     0.833387    Uiso  ? Co
   Co2        1.0     0.333112     0.666582     0.167041    Uiso  ? Co
   Co3        1.0     0.000123     0.000025     0.502057    Uiso  ? Co
   Co4        1.0     0.000004     0.000422     0.721439    Uiso  ? Co
   Co5        1.0     0.333646     0.666166     0.945397    Uiso  ? Co
   Co6        1.0     0.667336     0.333502     0.054569    Uiso  ? Co
   Co7        1.0     0.000475     0.000268     0.279620    Uiso  ? Co
   Co8        1.0     0.665817     0.333418     0.612889    Uiso  ? Co
   Co9        1.0     0.665737     0.333237     0.945485    Uiso  ? Co
   Co10       1.0     0.667078     0.333468     0.720908    Uiso  ? Co
   Co11       1.0     0.332550     0.666359     0.278652    Uiso  ? Co
   Co12       1.0     0.332471     0.666191     0.054225    Uiso  ? Co
   Co13       1.0     0.002154     0.000534     0.611873    Uiso  ? Co
   Co14       1.0    -0.000027    -0.000040     0.386632    Uiso  ? Co
   Co15       1.0     0.499736    -0.000165    -0.000107    Uiso  ? Co
   Co16       1.0     0.499730     0.499586    -0.000056    Uiso  ? Co
   Co17       1.0     0.999412     0.499535    -0.000179    Uiso  ? Co
   Co18       1.0     0.168291     0.336713     0.333562    Uiso  ? Co
   Co19       1.0     0.168300     0.831582     0.333564    Uiso  ? Co
   Co20       1.0     0.663203     0.831613     0.333525    Uiso  ? Co
   Co21       1.0     0.834305     0.668093     0.666711    Uiso  ? Co
   Co22       1.0     0.834335     0.166422     0.666646    Uiso  ? Co
   Co23       1.0     0.332825     0.166484     0.666794    Uiso  ? Co
   Co24       1.0     0.997475     0.498692     0.891731    Uiso  ? Co
   Co25       1.0     0.500654     0.001721     0.891729    Uiso  ? Co
   Co26       1.0     0.500810     0.498696     0.891671    Uiso  ? Co
   Co27       1.0     0.335924     0.168129     0.774894    Uiso  ? Co
   Co28       1.0     0.832005     0.664322     0.774880    Uiso  ? Co
   Co29       1.0     0.831970     0.168030     0.774895    Uiso  ? Co
   Co30       1.0     0.666488     0.833316     0.225211    Uiso  ? Co
   Co31       1.0     0.166701     0.333539     0.225175    Uiso  ? Co
   Co32       1.0     0.166707     0.833333     0.225170    Uiso  ? Co
   Co33       1.0     0.002654     0.501314     0.108197    Uiso  ? Co
   Co34       1.0     0.498605     0.997237     0.108133    Uiso  ? Co
   Co35       1.0     0.498656     0.501227     0.108130    Uiso  ? Co
   Co36       1.0     0.336833     0.168328     0.558386    Uiso  ? Co
   Co37       1.0     0.832626     0.664281     0.558456    Uiso  ? Co
   Co38       1.0     0.832622     0.168130     0.558498    Uiso  ? Co
   Co39       1.0     0.679979     0.840013     0.440872    Uiso  ? Co
   Co40       1.0     0.159734     0.319700     0.440895    Uiso  ? Co
   Co41       1.0     0.159713     0.840098     0.440903    Uiso  ? Co
   V1         1.0     0.333155     0.666578     0.394280    Uiso  ? V
