
#======================================================================
# CRYSTAL DATA
#----------------------------------------------------------------------
data_VESTA_phase_1

_chemical_name_common                  'Sm12 Co42                             '
_cell_length_a                         5.017675
_cell_length_b                         5.017885
_cell_length_c                         36.233055
_cell_angle_alpha                      89.999390
_cell_angle_beta                       89.999397
_cell_angle_gamma                      120.008293
_cell_volume                           789.991629
_space_group_name_H-M_alt              'P 1'
_space_group_IT_number                 1

loop_
_space_group_symop_operation_xyz
   'x, y, z'

loop_
   _atom_site_label
   _atom_site_occupancy
   _atom_site_fract_x
   _atom_site_fract_y
   _atom_site_fract_z
   _atom_site_adp_type
   _atom_site_U_iso_or_equiv
   _atom_site_type_symbol
   Sm1        1.0     0.999985     0.999978     0.949041    Uiso  ? Sm
   Sm2        1.0     0.333355     0.666676     0.717978    Uiso  ? Sm
   Sm3        1.0     0.666658     0.333353     0.281413    Uiso  ? Sm
   Sm4        1.0     0.999986     1.000018     0.050444    Uiso  ? Sm
   Sm5        1.0     0.333398     0.666621     0.615271    Uiso  ? Sm
   Sm6        1.0     0.666662     0.333362     0.384421    Uiso  ? Sm
   Sm7        1.0     0.999979     0.999955     0.852096    Uiso  ? Sm
   Sm8        1.0     0.333297     0.666631     0.815046    Uiso  ? Sm
   Sm9        1.0     0.666677     0.333350     0.184398    Uiso  ? Sm
   Sm10       1.0     0.000003     0.000024     0.147022    Uiso  ? Sm
   Sm11       1.0     0.333321     0.666673     0.518434    Uiso  ? Sm
   Sm12       1.0     0.666640     0.333326     0.481312    Uiso  ? Sm
   Co1        1.0     0.666634     0.333284     0.833300    Uiso  ? Co
   Co2        1.0     0.333345     0.666693     0.166580    Uiso  ? Co
   Co3        1.0    -0.000020     0.000003     0.499903    Uiso  ? Co
   Co4        1.0     0.000160     0.000170     0.721184    Uiso  ? Co
   Co5        1.0     0.333408     0.666856     0.945925    Uiso  ? Co
   Co6        1.0     0.666684     0.333307     0.054621    Uiso  ? Co
   Co7        1.0     0.999906     0.000113     0.278548    Uiso  ? Co
   Co8        1.0     0.333718     0.666722     0.387733    Uiso  ? Co
   Co9        1.0     0.666574     0.333372     0.612056    Uiso  ? Co
   Co10       1.0     0.666558     0.333104     0.946059    Uiso  ? Co
   Co11       1.0     0.666581     0.333216     0.721069    Uiso  ? Co
   Co12       1.0     0.333386     0.666623     0.278706    Uiso  ? Co
   Co13       1.0     0.999646     0.000049     0.387522    Uiso  ? Co
   Co14       1.0     1.000283     0.999855     0.612188    Uiso  ? Co
   Co15       1.0     0.499789     0.999624     0.000611    Uiso  ? Co
   Co16       1.0     0.499826     0.500142     0.000603    Uiso  ? Co
   Co17       1.0     0.000251     0.500114     0.000596    Uiso  ? Co
   Co18       1.0     0.166731     0.333461     0.333085    Uiso  ? Co
   Co19       1.0     0.166721     0.833271     0.333093    Uiso  ? Co
   Co20       1.0     0.666519     0.833265     0.333075    Uiso  ? Co
   Co21       1.0     0.833330     0.666582     0.666629    Uiso  ? Co
   Co22       1.0     0.833344     0.166633     0.666604    Uiso  ? Co
   Co23       1.0     0.333385     0.166642     0.666621    Uiso  ? Co
   Co24       1.0     0.997118     0.498545     0.892149    Uiso  ? Co
   Co25       1.0     0.501462     0.002917     0.892133    Uiso  ? Co
   Co26       1.0     0.501461     0.498530     0.892153    Uiso  ? Co
   Co27       1.0     0.335232     0.167617     0.774915    Uiso  ? Co
   Co28       1.0     0.832407     0.664841     0.774900    Uiso  ? Co
   Co29       1.0     0.832384     0.167590     0.774904    Uiso  ? Co
   Co30       1.0     0.665125     0.832596     0.224771    Uiso  ? Co
   Co31       1.0     0.167431     0.334906     0.224772    Uiso  ? Co
   Co32       1.0     0.167395     0.832609     0.224783    Uiso  ? Co
   Co33       1.0     0.998672     0.499364     0.107927    Uiso  ? Co
   Co34       1.0     0.500641     0.001319     0.107928    Uiso  ? Co
   Co35       1.0     0.500638     0.499378     0.107916    Uiso  ? Co
   Co36       1.0     0.331345     0.165681     0.558348    Uiso  ? Co
   Co37       1.0     0.834353     0.668701     0.558357    Uiso  ? Co
   Co38       1.0     0.834376     0.165637     0.558375    Uiso  ? Co
   Co39       1.0     0.668926     0.834454     0.441405    Uiso  ? Co
   Co40       1.0     0.165519     0.331058     0.441385    Uiso  ? Co
   Co41       1.0     0.165503     0.834464     0.441358    Uiso  ? Co
   V1         1.0     0.333297     0.666726     0.058331    Uiso  ? V
