
#======================================================================
# CRYSTAL DATA
#----------------------------------------------------------------------
data_VESTA_phase_1

_chemical_name_common                  'Sm12 Co42                             '
_cell_length_a                         4.983496
_cell_length_b                         5.049638
_cell_length_c                         36.451817
_cell_angle_alpha                      90.000000
_cell_angle_beta                       89.910965
_cell_angle_gamma                      120.440018
_cell_volume                           790.862004
_space_group_name_H-M_alt              'P 1'
_space_group_IT_number                 1

loop_
_space_group_symop_operation_xyz
   'x, y, z'

loop_
   _atom_site_label
   _atom_site_occupancy
   _atom_site_fract_x
   _atom_site_fract_y
   _atom_site_fract_z
   _atom_site_adp_type
   _atom_site_U_iso_or_equiv
   _atom_site_type_symbol
   Sm1        1.0     0.000511     0.000255     0.948541    Uiso  ? Sm
   Sm2        1.0     0.332823     0.666411     0.718126    Uiso  ? Sm
   Sm3        1.0     0.665844     0.332922     0.280246    Uiso  ? Sm
   Sm4        1.0    -0.000705    -0.000353     0.051042    Uiso  ? Sm
   Sm5        1.0     0.334038     0.667019     0.615625    Uiso  ? Sm
   Sm6        1.0     0.667490     0.333745     0.386420    Uiso  ? Sm
   Sm7        1.0     0.000626     0.000313     0.851914    Uiso  ? Sm
   Sm8        1.0     0.332707     0.666354     0.814753    Uiso  ? Sm
   Sm9        1.0     0.665443     0.332722     0.184745    Uiso  ? Sm
   Sm10       1.0    -0.002188    -0.001094     0.147698    Uiso  ? Sm
   Sm11       1.0     0.335521     0.667760     0.518968    Uiso  ? Sm
   Sm12       1.0     0.667890     0.333945     0.481922    Uiso  ? Sm
   Co1        1.0     0.666667     0.333333     0.833333    Uiso  ? Co
   Co2        1.0     0.332011     0.666006     0.166084    Uiso  ? Co
   Co3        1.0     0.001322     0.000661     0.500583    Uiso  ? Co
   Co4        1.0     0.008743     0.004372     0.721342    Uiso  ? Co
   Co5        1.0     0.324590     0.662295     0.945325    Uiso  ? Co
   Co6        1.0     0.676358     0.338179     0.054286    Uiso  ? Co
   Co7        1.0     0.001945     0.000972     0.278355    Uiso  ? Co
   Co8        1.0     0.331388     0.665694     0.388311    Uiso  ? Co
   Co9        1.0     0.656976     0.328488     0.612381    Uiso  ? Co
   Co10       1.0     0.676557     0.338279     0.945446    Uiso  ? Co
   Co11       1.0     0.656776     0.328388     0.721221    Uiso  ? Co
   Co12       1.0     0.329865     0.664933     0.278395    Uiso  ? Co
   Co13       1.0     0.322410     0.661205     0.054147    Uiso  ? Co
   Co14       1.0     0.010923     0.005462     0.612520    Uiso  ? Co
   Co15       1.0     0.003468     0.001734     0.388272    Uiso  ? Co
   Co16       1.0     0.499926    -0.000025    -0.000188    Uiso  ? Co
   Co17       1.0     0.499926     0.499951    -0.000188    Uiso  ? Co
   Co18       1.0    -0.000104     0.499948    -0.000217    Uiso  ? Co
   Co19       1.0     0.166667     0.333333     0.333333    Uiso  ? Co
   Co20       1.0     0.166667     0.833333     0.333333    Uiso  ? Co
   Co21       1.0     0.833408     0.666692     0.666855    Uiso  ? Co
   Co22       1.0     0.833408     0.166716     0.666855    Uiso  ? Co
   Co23       1.0     0.333437     0.166719     0.666884    Uiso  ? Co
   Co24       1.0     0.998088     0.499044     0.891248    Uiso  ? Co
   Co25       1.0     0.501046     0.002127     0.892081    Uiso  ? Co
   Co26       1.0     0.501046     0.498919     0.892081    Uiso  ? Co
   Co27       1.0     0.335245     0.167622     0.775419    Uiso  ? Co
   Co28       1.0     0.832287     0.664539     0.774586    Uiso  ? Co
   Co29       1.0     0.832287     0.167748     0.774586    Uiso  ? Co
   Co30       1.0     0.663354     0.831677     0.224797    Uiso  ? Co
   Co31       1.0     0.166363     0.334991     0.224523    Uiso  ? Co
   Co32       1.0     0.166363     0.831373     0.224523    Uiso  ? Co
   Co33       1.0     0.001861     0.500930     0.108390    Uiso  ? Co
   Co34       1.0     0.498354     0.997764     0.107454    Uiso  ? Co
   Co35       1.0     0.498354     0.500590     0.107454    Uiso  ? Co
   Co36       1.0     0.331473     0.165736     0.558277    Uiso  ? Co
   Co37       1.0     0.834979     0.668903     0.559212    Uiso  ? Co
   Co38       1.0     0.834979     0.166077     0.559212    Uiso  ? Co
   Co39       1.0     0.669980     0.834990     0.441870    Uiso  ? Co
   Co40       1.0     0.166970     0.331676     0.442143    Uiso  ? Co
   Co41       1.0     0.166970     0.835294     0.442143    Uiso  ? Co
   V1         1.0     0.666667     0.833333     0.333333    Uiso  ? V
