
#======================================================================
# CRYSTAL DATA
#----------------------------------------------------------------------
data_VESTA_phase_1

_chemical_name_common                  'Sm8 Co28                              '
_cell_length_a                         5.053653
_cell_length_b                         5.053653
_cell_length_c                         23.932510
_cell_angle_alpha                      90.000000
_cell_angle_beta                       90.000000
_cell_angle_gamma                      120.000000
_cell_volume                           529.333970
_space_group_name_H-M_alt              'P 1'
_space_group_IT_number                 1

loop_
_space_group_symop_operation_xyz
   'x, y, z'

loop_
   _atom_site_label
   _atom_site_occupancy
   _atom_site_fract_x
   _atom_site_fract_y
   _atom_site_fract_z
   _atom_site_adp_type
   _atom_site_U_iso_or_equiv
   _atom_site_type_symbol
   Sm1        1.0     0.666667     0.333333     0.530520    Uiso  ? Sm
   Sm2        1.0     0.333333     0.666667     0.027890    Uiso  ? Sm
   Sm3        1.0     0.333333     0.666667     0.469480    Uiso  ? Sm
   Sm4        1.0     0.666667     0.333333     0.972110    Uiso  ? Sm
   Sm5        1.0     0.666667     0.333333     0.672927    Uiso  ? Sm
   Sm6        1.0     0.333333     0.666667     0.173279    Uiso  ? Sm
   Sm7        1.0     0.333333     0.666667     0.327073    Uiso  ? Sm
   Sm8        1.0     0.666667     0.333333     0.826721    Uiso  ? Sm
   Co1        1.0     -0.000000     0.000000     -0.000000    Uiso  ? Co
   Co2        1.0     -0.000000     0.000000     0.666871    Uiso  ? Co
   Co3        1.0     -0.000000     0.000000     0.168681    Uiso  ? Co
   Co4        1.0     -0.000000     0.000000     0.333129    Uiso  ? Co
   Co5        1.0     -0.000000     0.000000     0.831319    Uiso  ? Co
   Co6        1.0     0.666667     0.333333     0.332571    Uiso  ? Co
   Co7        1.0     0.333333     0.666667     0.831275    Uiso  ? Co
   Co8        1.0     0.333333     0.666667     0.667429    Uiso  ? Co
   Co9        1.0     0.666667     0.333333     0.168725    Uiso  ? Co
   Co10       1.0     0.667553     0.833776     0.749074    Uiso  ? Co
   Co11       1.0     0.833776     0.667553     0.250926    Uiso  ? Co
   Co12       1.0     0.833776     0.166224     0.250926    Uiso  ? Co
   Co13       1.0     0.166224     0.833776     0.749074    Uiso  ? Co
   Co14       1.0     0.166224     0.332447     0.749074    Uiso  ? Co
   Co15       1.0     0.332447     0.166224     0.250926    Uiso  ? Co
   Co16       1.0     0.665966     0.832983     0.585572    Uiso  ? Co
   Co17       1.0     0.167017     0.832983     0.585572    Uiso  ? Co
   Co18       1.0     0.167017     0.334034     0.585572    Uiso  ? Co
   Co19       1.0     0.834208     0.668417     0.087824    Uiso  ? Co
   Co20       1.0     0.834208     0.165792     0.087824    Uiso  ? Co
   Co21       1.0     0.331583     0.165792     0.087824    Uiso  ? Co
   Co22       1.0     0.334034     0.167017     0.414428    Uiso  ? Co
   Co23       1.0     0.832983     0.665966     0.414428    Uiso  ? Co
   Co24       1.0     0.832983     0.167017     0.414428    Uiso  ? Co
   Co25       1.0     0.165792     0.834208     0.912176    Uiso  ? Co
   Co26       1.0     0.668417     0.834208     0.912176    Uiso  ? Co
   Co27       1.0     0.165792     0.331583     0.912176    Uiso  ? Co
   V1         1.0     -0.000000     0.000000     0.500000    Uiso  ? V
