
#======================================================================
# CRYSTAL DATA
#----------------------------------------------------------------------
data_VESTA_phase_1

_chemical_name_common                  'Sm8 Co28                              '
_cell_length_a                         5.030479
_cell_length_b                         5.030479
_cell_length_c                         24.116608
_cell_angle_alpha                      90.000000
_cell_angle_beta                       90.000000
_cell_angle_gamma                      120.000000
_cell_volume                           528.525085
_space_group_name_H-M_alt              'P 1'
_space_group_IT_number                 1

loop_
_space_group_symop_operation_xyz
   'x, y, z'

loop_
   _atom_site_label
   _atom_site_occupancy
   _atom_site_fract_x
   _atom_site_fract_y
   _atom_site_fract_z
   _atom_site_adp_type
   _atom_site_U_iso_or_equiv
   _atom_site_type_symbol
   Sm1        1.0     0.666667     0.333333     0.525633    Uiso  ? Sm
   Sm2        1.0     0.333333     0.666667     0.027918    Uiso  ? Sm
   Sm3        1.0     0.333333     0.666667     0.469010    Uiso  ? Sm
   Sm4        1.0     0.666667     0.333333     0.972347    Uiso  ? Sm
   Sm5        1.0     0.666667     0.333333     0.672351    Uiso  ? Sm
   Sm6        1.0     0.333333     0.666667     0.172696    Uiso  ? Sm
   Sm7        1.0     0.333333     0.666667     0.323837    Uiso  ? Sm
   Sm8        1.0     0.666667     0.333333     0.826625    Uiso  ? Sm
   Co1        1.0     -0.000000     0.000000     0.503118    Uiso  ? Co
   Co2        1.0     -0.000000     0.000000     0.999727    Uiso  ? Co
   Co3        1.0     -0.000000     0.000000     0.667386    Uiso  ? Co
   Co4        1.0     -0.000000     0.000000     0.169259    Uiso  ? Co
   Co5        1.0     -0.000000     0.000000     0.330190    Uiso  ? Co
   Co6        1.0     -0.000000     0.000000     0.831970    Uiso  ? Co
   Co7        1.0     0.333333     0.666667     0.831407    Uiso  ? Co
   Co8        1.0     0.333333     0.666667     0.669279    Uiso  ? Co
   Co9        1.0     0.666667     0.333333     0.168176    Uiso  ? Co
   Co10       1.0     0.668467     0.834234     0.749894    Uiso  ? Co
   Co11       1.0     0.832257     0.664514     0.250389    Uiso  ? Co
   Co12       1.0     0.832257     0.167743     0.250389    Uiso  ? Co
   Co13       1.0     0.165767     0.834234     0.749894    Uiso  ? Co
   Co14       1.0     0.165767     0.331533     0.749894    Uiso  ? Co
   Co15       1.0     0.335486     0.167743     0.250389    Uiso  ? Co
   Co16       1.0     0.663402     0.831701     0.587418    Uiso  ? Co
   Co17       1.0     0.168299     0.831701     0.587418    Uiso  ? Co
   Co18       1.0     0.168299     0.336598     0.587418    Uiso  ? Co
   Co19       1.0     0.835021     0.670043     0.087853    Uiso  ? Co
   Co20       1.0     0.835021     0.164979     0.087853    Uiso  ? Co
   Co21       1.0     0.329957     0.164979     0.087853    Uiso  ? Co
   Co22       1.0     0.319924     0.159962     0.411471    Uiso  ? Co
   Co23       1.0     0.840038     0.680076     0.411471    Uiso  ? Co
   Co24       1.0     0.840038     0.159962     0.411471    Uiso  ? Co
   Co25       1.0     0.165983     0.834017     0.912305    Uiso  ? Co
   Co26       1.0     0.668033     0.834017     0.912305    Uiso  ? Co
   Co27       1.0     0.165983     0.331966     0.912305    Uiso  ? Co
   V1         1.0     0.666667     0.333333     0.341080    Uiso  ? V
