
#======================================================================
# CRYSTAL DATA
#----------------------------------------------------------------------
data_VESTA_phase_1

_chemical_name_common                  'Sm8 Co28                              '
_cell_length_a                         5.085746
_cell_length_b                         4.962415
_cell_length_c                         24.407398
_cell_angle_alpha                      90.343246
_cell_angle_beta                       90.000839
_cell_angle_gamma                      120.826424
_cell_volume                           528.946944
_space_group_name_H-M_alt              'P 1'
_space_group_IT_number                 1

loop_
_space_group_symop_operation_xyz
   'x, y, z'

loop_
   _atom_site_label
   _atom_site_occupancy
   _atom_site_fract_x
   _atom_site_fract_y
   _atom_site_fract_z
   _atom_site_adp_type
   _atom_site_U_iso_or_equiv
   _atom_site_type_symbol
   Sm1        1.0     0.658459     0.316921     0.528996    Uiso  ? Sm
   Sm2        1.0     0.333221     0.666448     0.027715    Uiso  ? Sm
   Sm3        1.0     0.326377     0.652760     0.475016    Uiso  ? Sm
   Sm4        1.0     0.667174     0.334334     0.972039    Uiso  ? Sm
   Sm5        1.0     0.663341     0.326656     0.673938    Uiso  ? Sm
   Sm6        1.0     0.335299     0.670600     0.172391    Uiso  ? Sm
   Sm7        1.0     0.337127     0.674283     0.325471    Uiso  ? Sm
   Sm8        1.0     0.666470     0.332924     0.827428    Uiso  ? Sm
   Co1        1.0     0.987866     0.975756     0.500677    Uiso  ? Co
   Co2        1.0     0.000067     0.000133     0.999752    Uiso  ? Co
   Co3        1.0     0.001249     0.002501     0.669835    Uiso  ? Co
   Co4        1.0     0.993348     0.986695     0.167724    Uiso  ? Co
   Co5        1.0     0.000824     0.001622     0.328645    Uiso  ? Co
   Co6        1.0     0.007286     0.014543     0.832220    Uiso  ? Co
   Co7        1.0     0.674382     0.348829     0.331293    Uiso  ? Co
   Co8        1.0     0.325809     0.651626     0.832295    Uiso  ? Co
   Co9        1.0     0.325098     0.650152     0.669079    Uiso  ? Co
   Co10       1.0     0.677831     0.355669     0.166872    Uiso  ? Co
   Co11       1.0     0.665786     0.830516     0.750995    Uiso  ? Co
   Co12       1.0     0.835491     0.671007     0.249484    Uiso  ? Co
   Co13       1.0     0.836425     0.173588     0.248241    Uiso  ? Co
   Co14       1.0     0.164736     0.830509     0.750993    Uiso  ? Co
   Co15       1.0     0.165104     0.330187     0.750632    Uiso  ? Co
   Co16       1.0     0.337133     0.173588     0.248239    Uiso  ? Co
   Co17       1.0     0.665610     0.822209     0.589768    Uiso  ? Co
   Co18       1.0     0.156615     0.822218     0.589770    Uiso  ? Co
   Co19       1.0     0.160080     0.320166     0.588790    Uiso  ? Co
   Co20       1.0     0.835986     0.671971     0.085674    Uiso  ? Co
   Co21       1.0     0.835831     0.167879     0.088116    Uiso  ? Co
   Co22       1.0     0.332051     0.167888     0.088113    Uiso  ? Co
   Co23       1.0     0.342687     0.173954     0.410842    Uiso  ? Co
   Co24       1.0     0.831253     0.173962     0.410835    Uiso  ? Co
   Co25       1.0     0.165359     0.834098     0.911673    Uiso  ? Co
   Co26       1.0     0.668774     0.834116     0.911675    Uiso  ? Co
   Co27       1.0     0.165759     0.331492     0.913649    Uiso  ? Co
   V1         1.0     0.854091     0.708200     0.411126    Uiso  ? V
