
#======================================================================
# CRYSTAL DATA
#----------------------------------------------------------------------
data_VESTA_phase_1

_chemical_name_common                  'Sm12 Co42'
_cell_length_a                         5.026918
_cell_length_b                         4.972392
_cell_length_c                         36.349922
_cell_angle_alpha                      90.000000
_cell_angle_beta                       90.000000
_cell_angle_gamma                      120.000084
_cell_volume                           786.866162
_space_group_name_H-M_alt              'P 1'
_space_group_IT_number                 1

loop_
_space_group_symop_operation_xyz
   'x, y, z'

loop_
   _atom_site_label
   _atom_site_occupancy
   _atom_site_fract_x
   _atom_site_fract_y
   _atom_site_fract_z
   _atom_site_adp_type
   _atom_site_U_iso_or_equiv
   _atom_site_type_symbol
   Sm1        1.0     0.999311     0.999643     0.948714    Uiso  ? Sm
   Sm2        1.0     0.334022     0.667024     0.717953    Uiso  ? Sm
   Sm3        1.0     0.667031     0.333527     0.282373    Uiso  ? Sm
   Sm4        1.0     0.000214     0.000121     0.051298    Uiso  ? Sm
   Sm5        1.0     0.333120     0.666545     0.615369    Uiso  ? Sm
   Sm6        1.0     0.666302     0.333140     0.384293    Uiso  ? Sm
   Sm7        1.0     0.999503     0.999755     0.851914    Uiso  ? Sm
   Sm8        1.0     0.333831     0.666912     0.814753    Uiso  ? Sm
   Sm9        1.0     0.665389     0.332716     0.185380    Uiso  ? Sm
   Sm10       1.0     0.999383     0.999687     0.148140    Uiso  ? Sm
   Sm11       1.0     0.333951     0.666980     0.518527    Uiso  ? Sm
   Sm12       1.0     0.667944     0.333950     0.481287    Uiso  ? Sm
   Co1        1.0     0.666667     0.333333     0.833333    Uiso  ? Co
   Co2        1.0     0.331613     0.665817     0.166526    Uiso  ? Co
   Co3        1.0     0.001720     0.000850     0.500140    Uiso  ? Co
   Co4        1.0     0.994295     0.997193     0.721195    Uiso  ? Co
   Co5        1.0     0.339038     0.669473     0.945472    Uiso  ? Co
   Co6        1.0     0.662257     0.331105     0.054414    Uiso  ? Co
   Co7        1.0     0.018436     0.009213     0.278534    Uiso  ? Co
   Co8        1.0     0.314898     0.657453     0.388133    Uiso  ? Co
   Co9        1.0     0.671076     0.335561     0.612253    Uiso  ? Co
   Co10       1.0     0.659587     0.329807     0.945648    Uiso  ? Co
   Co11       1.0     0.673746     0.336860     0.721019    Uiso  ? Co
   Co12       1.0     0.315486     0.657767     0.278891    Uiso  ? Co
   Co13       1.0     0.337642     0.668889     0.054384    Uiso  ? Co
   Co14       1.0     0.995692     0.997778     0.612283    Uiso  ? Co
   Co15       1.0     0.017848     0.008900     0.387776    Uiso  ? Co
   Co16       1.0     0.499702     0.999704     1.000020    Uiso  ? Co
   Co17       1.0     0.499697     0.500010     1.000025    Uiso  ? Co
   Co18       1.0     0.999640     0.499823     0.999896    Uiso  ? Co
   Co19       1.0     0.166667     0.333333     0.333333    Uiso  ? Co
   Co20       1.0     0.166667     0.833333     0.333333    Uiso  ? Co
   Co21       1.0     0.833631     0.666963     0.666647    Uiso  ? Co
   Co22       1.0     0.833636     0.166656     0.666641    Uiso  ? Co
   Co23       1.0     0.333693     0.166844     0.666771    Uiso  ? Co
   Co24       1.0     0.998063     0.499024     0.892326    Uiso  ? Co
   Co25       1.0     0.501172     0.002243     0.891662    Uiso  ? Co
   Co26       1.0     0.501211     0.498888     0.891659    Uiso  ? Co
   Co27       1.0     0.335271     0.167642     0.774341    Uiso  ? Co
   Co28       1.0     0.832161     0.664424     0.775005    Uiso  ? Co
   Co29       1.0     0.832122     0.167778     0.775008    Uiso  ? Co
   Co30       1.0     0.665184     0.832615     0.226307    Uiso  ? Co
   Co31       1.0     0.169178     0.336785     0.224785    Uiso  ? Co
   Co32       1.0     0.169211     0.832432     0.224783    Uiso  ? Co
   Co33       1.0     0.001229     0.500602     0.107748    Uiso  ? Co
   Co34       1.0     0.498523     0.997759     0.108285    Uiso  ? Co
   Co35       1.0     0.498495     0.500761     0.108282    Uiso  ? Co
   Co36       1.0     0.332105     0.166065     0.558919    Uiso  ? Co
   Co37       1.0     0.834810     0.668908     0.558381    Uiso  ? Co
   Co38       1.0     0.834838     0.165906     0.558385    Uiso  ? Co
   Co39       1.0     0.668149     0.834051     0.440359    Uiso  ? Co
   Co40       1.0     0.164155     0.329882     0.441882    Uiso  ? Co
   Co41       1.0     0.164123     0.834235     0.441884    Uiso  ? Co
   Ni1        1.0     0.666667     0.833333     0.333333    Uiso  ? Ni
