
#======================================================================
# CRYSTAL DATA
#----------------------------------------------------------------------
data_VESTA_phase_1

_chemical_name_common                  'Sm12 Co42'
_cell_length_a                         5.005479
_cell_length_b                         5.005479
_cell_length_c                         36.400269
_cell_angle_alpha                      90.000000
_cell_angle_beta                       90.000000
_cell_angle_gamma                      120.000000
_cell_volume                           789.817009
_space_group_name_H-M_alt              'P 1'
_space_group_IT_number                 1

loop_
_space_group_symop_operation_xyz
   'x, y, z'

loop_
   _atom_site_label
   _atom_site_occupancy
   _atom_site_fract_x
   _atom_site_fract_y
   _atom_site_fract_z
   _atom_site_adp_type
   _atom_site_U_iso_or_equiv
   _atom_site_type_symbol
   Sm1        1.0     0.000000     0.000000     0.948681    Uiso  ? Sm
   Sm2        1.0     0.333333     0.666667     0.717942    Uiso  ? Sm
   Sm3        1.0     0.666667     0.333333     0.282071    Uiso  ? Sm
   Sm4        1.0     0.000000     0.000000     0.051274    Uiso  ? Sm
   Sm5        1.0     0.333333     0.666667     0.615356    Uiso  ? Sm
   Sm6        1.0     0.666667     0.333333     0.384585    Uiso  ? Sm
   Sm7        1.0     0.000000     0.000000     0.851923    Uiso  ? Sm
   Sm8        1.0     0.333333     0.666667     0.814746    Uiso  ? Sm
   Sm9        1.0     0.666667     0.333333     0.185236    Uiso  ? Sm
   Sm10       1.0     0.000000     0.000000     0.147965    Uiso  ? Sm
   Sm11       1.0     0.333333     0.666667     0.518457    Uiso  ? Sm
   Sm12       1.0     0.666667     0.333333     0.481379    Uiso  ? Sm
   Co1        1.0     0.666667     0.333333     0.833369    Uiso  ? Co
   Co2        1.0     0.333333     0.666667     0.166714    Uiso  ? Co
   Co3        1.0     0.000000     0.000000     0.500346    Uiso  ? Co
   Co4        1.0     0.000000     0.000000     0.721197    Uiso  ? Co
   Co5        1.0     0.333333     0.666667     0.945519    Uiso  ? Co
   Co6        1.0     0.666667     0.333333     0.054485    Uiso  ? Co
   Co7        1.0     0.000000     0.000000     0.279542    Uiso  ? Co
   Co8        1.0     0.666667     0.333333     0.612309    Uiso  ? Co
   Co9        1.0     0.666667     0.333333     0.945612    Uiso  ? Co
   Co10       1.0     0.666667     0.333333     0.720986    Uiso  ? Co
   Co11       1.0     0.333333     0.666667     0.278184    Uiso  ? Co
   Co12       1.0     0.333333     0.666667     0.054356    Uiso  ? Co
   Co13       1.0     0.000000     0.000000     0.612269    Uiso  ? Co
   Co14       1.0     0.000000     0.000000     0.387105    Uiso  ? Co
   Co15       1.0     0.500008     0.000016    -0.000012    Uiso  ? Co
   Co16       1.0     0.500008     0.499992    -0.000012    Uiso  ? Co
   Co17       1.0    -0.000016     0.499992    -0.000012    Uiso  ? Co
   Co18       1.0     0.168107     0.336215     0.333215    Uiso  ? Co
   Co19       1.0     0.168107     0.831893     0.333215    Uiso  ? Co
   Co20       1.0     0.663785     0.831893     0.333215    Uiso  ? Co
   Co21       1.0     0.833408     0.666816     0.666672    Uiso  ? Co
   Co22       1.0     0.833408     0.166592     0.666672    Uiso  ? Co
   Co23       1.0     0.333184     0.166592     0.666672    Uiso  ? Co
   Co24       1.0     0.998003     0.499001     0.891876    Uiso  ? Co
   Co25       1.0     0.500999     0.001997     0.891876    Uiso  ? Co
   Co26       1.0     0.500999     0.499001     0.891876    Uiso  ? Co
   Co27       1.0     0.335535     0.167768     0.774785    Uiso  ? Co
   Co28       1.0     0.832232     0.664465     0.774785    Uiso  ? Co
   Co29       1.0     0.832232     0.167768     0.774785    Uiso  ? Co
   Co30       1.0     0.666287     0.833144     0.225080    Uiso  ? Co
   Co31       1.0     0.166856     0.333713     0.225080    Uiso  ? Co
   Co32       1.0     0.166856     0.833144     0.225080    Uiso  ? Co
   Co33       1.0     0.002008     0.501004     0.108096    Uiso  ? Co
   Co34       1.0     0.498996     0.997992     0.108096    Uiso  ? Co
   Co35       1.0     0.498996     0.501004     0.108096    Uiso  ? Co
   Co36       1.0     0.331907     0.165953     0.558613    Uiso  ? Co
   Co37       1.0     0.834047     0.668093     0.558613    Uiso  ? Co
   Co38       1.0     0.834047     0.165953     0.558613    Uiso  ? Co
   Co39       1.0     0.670689     0.835344     0.441641    Uiso  ? Co
   Co40       1.0     0.164656     0.329312     0.441641    Uiso  ? Co
   Co41       1.0     0.164656     0.835344     0.441641    Uiso  ? Co
   Ni1        1.0     0.333333     0.666667     0.388494    Uiso  ? Ni
