
#======================================================================
# CRYSTAL DATA
#----------------------------------------------------------------------
data_VESTA_phase_1

_chemical_name_common                  'Sm8 Co28'
_cell_length_a                         4.969886
_cell_length_b                         5.034255
_cell_length_c                         24.215830
_cell_angle_alpha                      90.000000
_cell_angle_beta                       90.000000
_cell_angle_gamma                      119.577927
_cell_volume                           526.917955
_space_group_name_H-M_alt              'P 1'
_space_group_IT_number                 1

loop_
_space_group_symop_operation_xyz
   'x, y, z'

loop_
   _atom_site_label
   _atom_site_occupancy
   _atom_site_fract_x
   _atom_site_fract_y
   _atom_site_fract_z
   _atom_site_adp_type
   _atom_site_U_iso_or_equiv
   _atom_site_type_symbol
   Sm1        1.0     0.668363     0.336727     0.527674    Uiso  ? Sm
   Sm2        1.0     0.332804     0.665608     0.027769    Uiso  ? Sm
   Sm3        1.0     0.334626     0.669252     0.471540    Uiso  ? Sm
   Sm4        1.0     0.666001     0.332003     0.972133    Uiso  ? Sm
   Sm5        1.0     0.667696     0.335393     0.673056    Uiso  ? Sm
   Sm6        1.0     0.332798     0.665596     0.172978    Uiso  ? Sm
   Sm7        1.0     0.331936     0.663873     0.326991    Uiso  ? Sm
   Sm8        1.0     0.667055     0.334111     0.826876    Uiso  ? Sm
   Co1        1.0     0.003661     0.007321     0.499728    Uiso  ? Co
   Co2        1.0    -0.000623    -0.001245     1.000041    Uiso  ? Co
   Co3        1.0     0.992884     0.985769     0.668382    Uiso  ? Co
   Co4        1.0     0.994999     0.989998     0.168543    Uiso  ? Co
   Co5        1.0     0.012267     0.024535     0.331461    Uiso  ? Co
   Co6        1.0     0.997695     0.995389     0.831569    Uiso  ? Co
   Co7        1.0     0.651278     0.302555     0.331820    Uiso  ? Co
   Co8        1.0     0.336138     0.672277     0.831901    Uiso  ? Co
   Co9        1.0     0.342612     0.685224     0.667989    Uiso  ? Co
   Co10       1.0     0.670849     0.341698     0.168479    Uiso  ? Co
   Co11       1.0     0.667379     0.834675     0.750293    Uiso  ? Co
   Co12       1.0     0.833630     0.667259     0.252237    Uiso  ? Co
   Co13       1.0     0.832559     0.165583     0.249287    Uiso  ? Co
   Co14       1.0     0.167296     0.834675     0.750293    Uiso  ? Co
   Co15       1.0     0.166672     0.333345     0.749319    Uiso  ? Co
   Co16       1.0     0.333024     0.165583     0.249287    Uiso  ? Co
   Co17       1.0     0.670831     0.839088     0.586896    Uiso  ? Co
   Co18       1.0     0.168257     0.839088     0.586896    Uiso  ? Co
   Co19       1.0     0.167173     0.334347     0.589232    Uiso  ? Co
   Co20       1.0     0.834379     0.668758     0.087585    Uiso  ? Co
   Co21       1.0     0.833508     0.164648     0.087938    Uiso  ? Co
   Co22       1.0     0.331140     0.164648     0.087938    Uiso  ? Co
   Co23       1.0     0.326077     0.159857     0.413066    Uiso  ? Co
   Co24       1.0     0.833780     0.159857     0.413066    Uiso  ? Co
   Co25       1.0     0.165647     0.835208     0.912594    Uiso  ? Co
   Co26       1.0     0.669562     0.835208     0.912594    Uiso  ? Co
   Co27       1.0     0.165908     0.331816     0.911507    Uiso  ? Co
   Ni1        1.0     0.830137     0.660273     0.411044    Uiso  ? Ni
