
#======================================================================
# CRYSTAL DATA
#----------------------------------------------------------------------
data_VESTA_phase_1

_chemical_name_common                  'Sm1 Co5                               '
_cell_length_a                         9.998658
_cell_length_b                         5.021785
_cell_length_c                         7.888376
_cell_angle_alpha                      89.926353
_cell_angle_beta                       90.060722
_cell_angle_gamma                      120.847710
_cell_volume                           340.051062
_space_group_name_H-M_alt              'P 1'
_space_group_IT_number                 1

loop_
_space_group_symop_operation_xyz
   'x, y, z'

loop_
   _atom_site_label
   _atom_site_occupancy
   _atom_site_fract_x
   _atom_site_fract_y
   _atom_site_fract_z
   _atom_site_adp_type
   _atom_site_U_iso_or_equiv
   _atom_site_type_symbol
   Sm1        1.0     0.999681     0.977251     0.998665    Uiso  ? Sm
   Sm2        1.0     0.500364     0.022915     0.998732    Uiso  ? Sm
   Sm3        1.0     0.003096     0.993249     0.501317    Uiso  ? Sm
   Sm4        1.0     0.497186     0.006690     0.501433    Uiso  ? Sm
   Co1        1.0     0.164887     0.637500     0.999844    Uiso  ? Co
   Co2        1.0     0.335519     0.362899     0.000643    Uiso  ? Co
   Co3        1.0     0.659683     0.697416     0.998041    Uiso  ? Co
   Co4        1.0     0.840943     0.302563     0.998520    Uiso  ? Co
   Co5        1.0     0.168035     0.656863     0.500449    Uiso  ? Co
   Co6        1.0     0.335096     0.345228     0.499952    Uiso  ? Co
   Co7        1.0     0.834557     0.322545     0.500042    Uiso  ? Co
   Co8        1.0     0.001550     0.489735     0.251250    Uiso  ? Co
   Co9        1.0     0.249464     0.000566     0.247312    Uiso  ? Co
   Co10       1.0     0.498124     0.511101     0.250111    Uiso  ? Co
   Co11       1.0     0.749502     0.000978     0.253177    Uiso  ? Co
   Co12       1.0     0.249272     0.500072     0.251557    Uiso  ? Co
   Co13       1.0     0.999928     0.495975     0.748903    Uiso  ? Co
   Co14       1.0     0.249428     0.999263     0.752975    Uiso  ? Co
   Co15       1.0     0.249468     0.498613     0.748937    Uiso  ? Co
   Co16       1.0     0.498813     0.503887     0.750301    Uiso  ? Co
   Co17       1.0     0.750145     0.000880     0.746884    Uiso  ? Co
   Co18       1.0     0.751137     0.500137     0.754723    Uiso  ? Co
   Fe1        1.0     0.663950     0.672903     0.502526    Uiso  ? Fe
   Cu1        1.0     0.750171     0.500768     0.243706    Uiso  ? Cu
