
#======================================================================
# CRYSTAL DATA
#----------------------------------------------------------------------
data_VESTA_phase_1

_chemical_name_common                  'Sm12 Co42                             '
_cell_length_a                         5.015106
_cell_length_b                         5.012054
_cell_length_c                         36.458218
_cell_angle_alpha                      90.000000
_cell_angle_beta                       89.950081
_cell_angle_gamma                      119.979874
_cell_volume                           793.797636
_space_group_name_H-M_alt              'P 1'
_space_group_IT_number                 1

loop_
_space_group_symop_operation_xyz
   'x, y, z'

loop_
   _atom_site_label
   _atom_site_occupancy
   _atom_site_fract_x
   _atom_site_fract_y
   _atom_site_fract_z
   _atom_site_adp_type
   _atom_site_U_iso_or_equiv
   _atom_site_type_symbol
   Sm1        1.0     0.000058     0.000029     0.948278    Uiso  ? Sm
   Sm2        1.0     0.333275     0.666638     0.718389    Uiso  ? Sm
   Sm3        1.0     0.665943     0.332971     0.278233    Uiso  ? Sm
   Sm4        1.0     0.999745     0.999872     0.050582    Uiso  ? Sm
   Sm5        1.0     0.333589     0.666794     0.616084    Uiso  ? Sm
   Sm6        1.0     0.667391     0.333695     0.388434    Uiso  ? Sm
   Sm7        1.0     0.999802     0.999901     0.851832    Uiso  ? Sm
   Sm8        1.0     0.333532     0.666766     0.814834    Uiso  ? Sm
   Sm9        1.0     0.663585     0.331792     0.183706    Uiso  ? Sm
   Sm10       1.0     0.996712     0.998356     0.146975    Uiso  ? Sm
   Sm11       1.0     0.336621     0.668311     0.519691    Uiso  ? Sm
   Sm12       1.0     0.669749     0.334874     0.482961    Uiso  ? Sm
   Co1        1.0     0.666667     0.333333     0.833333    Uiso  ? Co
   Co2        1.0     0.330650     0.665325     0.165322    Uiso  ? Co
   Co3        1.0     0.002683     0.001342     0.501345    Uiso  ? Co
   Co4        1.0     0.998915     0.999458     0.721562    Uiso  ? Co
   Co5        1.0     0.334418     0.667209     0.945104    Uiso  ? Co
   Co6        1.0     0.668704     0.334352     0.053686    Uiso  ? Co
   Co7        1.0     0.030934     0.015467     0.277309    Uiso  ? Co
   Co8        1.0     0.302399     0.651200     0.389357    Uiso  ? Co
   Co9        1.0     0.664629     0.332314     0.612981    Uiso  ? Co
   Co10       1.0     0.666094     0.333047     0.945228    Uiso  ? Co
   Co11       1.0     0.667239     0.333620     0.721438    Uiso  ? Co
   Co12       1.0     0.301101     0.650551     0.277425    Uiso  ? Co
   Co13       1.0     0.330684     0.665342     0.053574    Uiso  ? Co
   Co14       1.0     0.002650     0.001325     0.613092    Uiso  ? Co
   Co15       1.0     0.032232     0.016116     0.389242    Uiso  ? Co
   Co16       1.0     0.499964     1.000025     0.999465    Uiso  ? Co
   Co17       1.0     0.499964     0.499939     0.999465    Uiso  ? Co
   Co18       1.0     0.000030     0.500015     0.999338    Uiso  ? Co
   Co19       1.0     0.166667     0.333333     0.333333    Uiso  ? Co
   Co20       1.0     0.166667     0.833333     0.333333    Uiso  ? Co
   Co21       1.0     0.833369     0.666642     0.667202    Uiso  ? Co
   Co22       1.0     0.833369     0.166727     0.667202    Uiso  ? Co
   Co23       1.0     0.333303     0.166652     0.667329    Uiso  ? Co
   Co24       1.0     0.997996     0.498998     0.891708    Uiso  ? Co
   Co25       1.0     0.500902     0.002235     0.891636    Uiso  ? Co
   Co26       1.0     0.500902     0.498667     0.891636    Uiso  ? Co
   Co27       1.0     0.335338     0.167669     0.774959    Uiso  ? Co
   Co28       1.0     0.832431     0.664432     0.775030    Uiso  ? Co
   Co29       1.0     0.832431     0.168000     0.775030    Uiso  ? Co
   Co30       1.0     0.665801     0.832900     0.225535    Uiso  ? Co
   Co31       1.0     0.167509     0.336517     0.222945    Uiso  ? Co
   Co32       1.0     0.167509     0.830992     0.222945    Uiso  ? Co
   Co33       1.0     0.001730     0.500865     0.107268    Uiso  ? Co
   Co34       1.0     0.497416     0.997615     0.107106    Uiso  ? Co
   Co35       1.0     0.497416     0.499801     0.107106    Uiso  ? Co
   Co36       1.0     0.331603     0.165801     0.559399    Uiso  ? Co
   Co37       1.0     0.835917     0.669052     0.559561    Uiso  ? Co
   Co38       1.0     0.835917     0.166865     0.559561    Uiso  ? Co
   Co39       1.0     0.667532     0.833766     0.441132    Uiso  ? Co
   Co40       1.0     0.165824     0.330150     0.443721    Uiso  ? Co
   Co41       1.0     0.165824     0.835675     0.443721    Uiso  ? Co
   Ti1        1.0     0.666667     0.833333     0.333333    Uiso  ? Ti
