
#======================================================================
# CRYSTAL DATA
#----------------------------------------------------------------------
data_VESTA_phase_1

_chemical_name_common                  'Sm12 Co42                             '
_cell_length_a                         4.992958
_cell_length_b                         4.992964
_cell_length_c                         36.491035
_cell_angle_alpha                      90.008156
_cell_angle_beta                       89.991554
_cell_angle_gamma                      119.185158
_cell_volume                           794.220132
_space_group_name_H-M_alt              'P 1'
_space_group_IT_number                 1

loop_
_space_group_symop_operation_xyz
   'x, y, z'

loop_
   _atom_site_label
   _atom_site_occupancy
   _atom_site_fract_x
   _atom_site_fract_y
   _atom_site_fract_z
   _atom_site_adp_type
   _atom_site_U_iso_or_equiv
   _atom_site_type_symbol
   Sm1        1.0    -0.000174     0.000166     0.949000    Uiso  ? Sm
   Sm2        1.0     0.333426     0.666552     0.719470    Uiso  ? Sm
   Sm3        1.0     0.666449     0.333554     0.281075    Uiso  ? Sm
   Sm4        1.0     0.000273    -0.000282     0.051271    Uiso  ? Sm
   Sm5        1.0     0.334229     0.665753     0.618261    Uiso  ? Sm
   Sm6        1.0     0.665595     0.334416     0.383183    Uiso  ? Sm
   Sm7        1.0    -0.000057     0.000059     0.852496    Uiso  ? Sm
   Sm8        1.0     0.333859     0.666144     0.815542    Uiso  ? Sm
   Sm9        1.0     0.666398     0.333600     0.184660    Uiso  ? Sm
   Sm10       1.0     0.000349    -0.000345     0.147625    Uiso  ? Sm
   Sm11       1.0     0.336916     0.663096     0.515147    Uiso  ? Sm
   Sm12       1.0     0.666318     0.333693     0.479305    Uiso  ? Sm
   Co1        1.0     0.666725     0.333275     0.834031    Uiso  ? Co
   Co2        1.0     0.333377     0.666628     0.166190    Uiso  ? Co
   Co3        1.0    -0.000699     0.000711     0.499173    Uiso  ? Co
   Co4        1.0    -0.013094     0.013157     0.722272    Uiso  ? Co
   Co5        1.0     0.337736     0.662226     0.945792    Uiso  ? Co
   Co6        1.0     0.662926     0.337077     0.054484    Uiso  ? Co
   Co7        1.0     0.003803    -0.003804     0.277998    Uiso  ? Co
   Co8        1.0     0.326677     0.673336     0.387037    Uiso  ? Co
   Co9        1.0     0.646743     0.353277     0.614512    Uiso  ? Co
   Co10       1.0     0.662040     0.337977     0.945930    Uiso  ? Co
   Co11       1.0     0.680112     0.319829     0.722193    Uiso  ? Co
   Co12       1.0     0.328866     0.671145     0.277768    Uiso  ? Co
   Co13       1.0     0.337564     0.662439     0.054359    Uiso  ? Co
   Co14       1.0     0.021149    -0.021156     0.614403    Uiso  ? Co
   Co15       1.0     0.003893    -0.003883     0.385718    Uiso  ? Co
   Co16       1.0     0.500014     0.000057     0.000156    Uiso  ? Co
   Co17       1.0     0.499991     0.500002     0.000216    Uiso  ? Co
   Co18       1.0    -0.000050     0.499994     0.000159    Uiso  ? Co
   Co19       1.0     0.166729     0.334586     0.332179    Uiso  ? Co
   Co20       1.0     0.166727     0.833285     0.332021    Uiso  ? Co
   Co21       1.0     0.665426     0.833283     0.332179    Uiso  ? Co
   Co22       1.0     0.833449     0.667041     0.669722    Uiso  ? Co
   Co23       1.0     0.833825     0.166132     0.665348    Uiso  ? Co
   Co24       1.0     0.332932     0.166538     0.669722    Uiso  ? Co
   Co25       1.0     0.998219     0.498894     0.892656    Uiso  ? Co
   Co26       1.0     0.501105     0.001780     0.892657    Uiso  ? Co
   Co27       1.0     0.501213     0.498786     0.891826    Uiso  ? Co
   Co28       1.0     0.334600     0.167503     0.775027    Uiso  ? Co
   Co29       1.0     0.832477     0.665367     0.775026    Uiso  ? Co
   Co30       1.0     0.831609     0.168383     0.777039    Uiso  ? Co
   Co31       1.0     0.665427     0.832487     0.224752    Uiso  ? Co
   Co32       1.0     0.167514     0.334572     0.224753    Uiso  ? Co
   Co33       1.0     0.167779     0.832218     0.223978    Uiso  ? Co
   Co34       1.0     0.001930     0.500893     0.107586    Uiso  ? Co
   Co35       1.0     0.499101     0.998065     0.107587    Uiso  ? Co
   Co36       1.0     0.498744     0.501239     0.108368    Uiso  ? Co
   Co37       1.0     0.162199     0.330757     0.439306    Uiso  ? Co
   Co38       1.0     0.161175     0.838840     0.440240    Uiso  ? Co
   Co39       1.0     0.669257     0.837815     0.439306    Uiso  ? Co
   Co40       1.0     0.332970     0.159495     0.558669    Uiso  ? Co
   Co41       1.0     0.840521     0.667049     0.558668    Uiso  ? Co
   Ti1        1.0     0.833716     0.166302     0.561963    Uiso  ? Ti
