
#======================================================================
# CRYSTAL DATA
#----------------------------------------------------------------------
data_VESTA_phase_1

_chemical_name_common                  'Sm8 Co28                              '
_cell_length_a                         5.061489
_cell_length_b                         5.061373
_cell_length_c                         24.009264
_cell_angle_alpha                      90.000496
_cell_angle_beta                       89.999825
_cell_angle_gamma                      119.998543
_cell_volume                           532.675209
_space_group_name_H-M_alt              'P 1'
_space_group_IT_number                 1

loop_
_space_group_symop_operation_xyz
   'x, y, z'

loop_
   _atom_site_label
   _atom_site_occupancy
   _atom_site_fract_x
   _atom_site_fract_y
   _atom_site_fract_z
   _atom_site_adp_type
   _atom_site_U_iso_or_equiv
   _atom_site_type_symbol
   Sm1        1.0     0.666656     0.333342     0.532105    Uiso  ? Sm
   Sm2        1.0     0.333333     0.666668     0.027882    Uiso  ? Sm
   Sm3        1.0     0.333335     0.666677     0.467901    Uiso  ? Sm
   Sm4        1.0     0.666676     0.333335     0.972126    Uiso  ? Sm
   Sm5        1.0     0.666668     0.333333     0.674306    Uiso  ? Sm
   Sm6        1.0     0.333333     0.666666     0.172788    Uiso  ? Sm
   Sm7        1.0     0.333332     0.666666     0.325690    Uiso  ? Sm
   Sm8        1.0     0.666667     0.333333     0.827199    Uiso  ? Sm
   Co1        1.0     0.000005     0.000000     0.000002    Uiso  ? Co
   Co2        1.0     0.000050     0.000029     0.667513    Uiso  ? Co
   Co3        1.0    -0.000005    -0.000002     0.167989    Uiso  ? Co
   Co4        1.0     0.000013     0.000007     0.332494    Uiso  ? Co
   Co5        1.0     0.000056    -0.000001     0.831997    Uiso  ? Co
   Co6        1.0     0.666652     0.333326     0.330550    Uiso  ? Co
   Co7        1.0     0.333279     0.666666     0.831627    Uiso  ? Co
   Co8        1.0     0.333282     0.666636     0.669432    Uiso  ? Co
   Co9        1.0     0.666670     0.333334     0.168363    Uiso  ? Co
   Co10       1.0     0.668549     0.834273     0.750038    Uiso  ? Co
   Co11       1.0     0.834276     0.668564     0.249966    Uiso  ? Co
   Co12       1.0     0.834278     0.165707     0.249966    Uiso  ? Co
   Co13       1.0     0.165734     0.834268     0.750036    Uiso  ? Co
   Co14       1.0     0.165733     0.331460     0.750039    Uiso  ? Co
   Co15       1.0     0.331428     0.165712     0.249966    Uiso  ? Co
   Co16       1.0     0.662596     0.831301     0.587548    Uiso  ? Co
   Co17       1.0     0.168711     0.831290     0.587546    Uiso  ? Co
   Co18       1.0     0.168701     0.337407     0.587543    Uiso  ? Co
   Co19       1.0     0.834053     0.668113     0.087584    Uiso  ? Co
   Co20       1.0     0.834055     0.165943     0.087582    Uiso  ? Co
   Co21       1.0     0.331878     0.165942     0.087586    Uiso  ? Co
   Co22       1.0     0.337431     0.168711     0.412474    Uiso  ? Co
   Co23       1.0     0.831292     0.662573     0.412475    Uiso  ? Co
   Co24       1.0     0.831283     0.168719     0.412475    Uiso  ? Co
   Co25       1.0     0.165945     0.834057     0.912412    Uiso  ? Co
   Co26       1.0     0.668120     0.834055     0.912405    Uiso  ? Co
   Co27       1.0     0.165945     0.331879     0.912408    Uiso  ? Co
   Ti1        1.0    -0.000008     0.000011     0.499985    Uiso  ? Ti
