
#======================================================================
# CRYSTAL DATA
#----------------------------------------------------------------------
data_VESTA_phase_1

_chemical_name_common                  'Sm8 Co28                              '
_cell_length_a                         5.040078
_cell_length_b                         5.040078
_cell_length_c                         24.159086
_cell_angle_alpha                      90.000000
_cell_angle_beta                       90.000000
_cell_angle_gamma                      120.000000
_cell_volume                           531.478473
_space_group_name_H-M_alt              'P 1'
_space_group_IT_number                 1

loop_
_space_group_symop_operation_xyz
   'x, y, z'

loop_
   _atom_site_label
   _atom_site_occupancy
   _atom_site_fract_x
   _atom_site_fract_y
   _atom_site_fract_z
   _atom_site_adp_type
   _atom_site_U_iso_or_equiv
   _atom_site_type_symbol
   Sm1        1.0     0.666667     0.333333     0.527299    Uiso  ? Sm
   Sm2        1.0     0.333333     0.666667     0.027222    Uiso  ? Sm
   Sm3        1.0     0.333333     0.666667     0.470079    Uiso  ? Sm
   Sm4        1.0     0.666667     0.333333     0.971695    Uiso  ? Sm
   Sm5        1.0     0.666667     0.333333     0.673076    Uiso  ? Sm
   Sm6        1.0     0.333333     0.666667     0.171661    Uiso  ? Sm
   Sm7        1.0     0.333333     0.666667     0.322507    Uiso  ? Sm
   Sm8        1.0     0.666667     0.333333     0.826569    Uiso  ? Sm
   Co1        1.0     -0.000000     -0.000000     0.502957    Uiso  ? Co
   Co2        1.0     -0.000000     -0.000000     0.999694    Uiso  ? Co
   Co3        1.0     -0.000000     -0.000000     0.668090    Uiso  ? Co
   Co4        1.0     -0.000000     -0.000000     0.166595    Uiso  ? Co
   Co5        1.0     -0.000000     -0.000000     0.332522    Uiso  ? Co
   Co6        1.0     -0.000000     -0.000000     0.831868    Uiso  ? Co
   Co7        1.0     0.333333     0.666667     0.831636    Uiso  ? Co
   Co8        1.0     0.333333     0.666667     0.669557    Uiso  ? Co
   Co9        1.0     0.666667     0.333333     0.169192    Uiso  ? Co
   Co10       1.0     0.668277     0.834139     0.750198    Uiso  ? Co
   Co11       1.0     0.836168     0.672336     0.248845    Uiso  ? Co
   Co12       1.0     0.836168     0.163832     0.248845    Uiso  ? Co
   Co13       1.0     0.165861     0.834139     0.750198    Uiso  ? Co
   Co14       1.0     0.165861     0.331723     0.750198    Uiso  ? Co
   Co15       1.0     0.327665     0.163832     0.248845    Uiso  ? Co
   Co16       1.0     0.664815     0.832407     0.588140    Uiso  ? Co
   Co17       1.0     0.167592     0.832407     0.588140    Uiso  ? Co
   Co18       1.0     0.167592     0.335185     0.588140    Uiso  ? Co
   Co19       1.0     0.833454     0.666909     0.087061    Uiso  ? Co
   Co20       1.0     0.833454     0.166545     0.087061    Uiso  ? Co
   Co21       1.0     0.333091     0.166545     0.087061    Uiso  ? Co
   Co22       1.0     0.320513     0.160256     0.414048    Uiso  ? Co
   Co23       1.0     0.839743     0.679487     0.414048    Uiso  ? Co
   Co24       1.0     0.839743     0.160256     0.414048    Uiso  ? Co
   Co25       1.0     0.165712     0.834288     0.912119    Uiso  ? Co
   Co26       1.0     0.668577     0.834288     0.912119    Uiso  ? Co
   Co27       1.0     0.165712     0.331423     0.912119    Uiso  ? Co
   Ti1        1.0     0.666667     0.333333     0.336548    Uiso  ? Ti
