
#======================================================================
# CRYSTAL DATA
#----------------------------------------------------------------------
data_VESTA_phase_1

_chemical_name_common                  'Sm1 Co5                               '
_cell_length_a                         10.293103
_cell_length_b                         4.890723
_cell_length_c                         8.012411
_cell_angle_alpha                      89.999466
_cell_angle_beta                       89.997253
_cell_angle_gamma                      118.966003
_cell_volume                           352.894294
_space_group_name_H-M_alt              'P 1'
_space_group_IT_number                 1

loop_
_space_group_symop_operation_xyz
   'x, y, z'

loop_
   _atom_site_label
   _atom_site_occupancy
   _atom_site_fract_x
   _atom_site_fract_y
   _atom_site_fract_z
   _atom_site_adp_type
   _atom_site_U_iso_or_equiv
   _atom_site_type_symbol
   Sm1        1.0    -0.000134     0.004074     0.000172    Uiso  ? Sm
   Sm2        1.0     0.500301    -0.003051     0.001073    Uiso  ? Sm
   Sm3        1.0    -0.000038     0.004142     0.499836    Uiso  ? Sm
   Sm4        1.0     0.500198    -0.003127     0.498925    Uiso  ? Sm
   Co1        1.0     0.185908     0.690698     0.001573    Uiso  ? Co
   Co2        1.0     0.314140     0.306834    -0.003696    Uiso  ? Co
   Co3        1.0     0.688352     0.687340    -0.000684    Uiso  ? Co
   Co4        1.0     0.810460     0.312981     0.001950    Uiso  ? Co
   Co5        1.0     0.185938     0.690739     0.498421    Uiso  ? Co
   Co6        1.0     0.314173     0.306882     0.503689    Uiso  ? Co
   Co7        1.0     0.688362     0.687399     0.500701    Uiso  ? Co
   Co8        1.0     0.810364     0.312833     0.498053    Uiso  ? Co
   Co9        1.0     0.251219    -0.000167     0.249989    Uiso  ? Co
   Co10       1.0     0.750304     0.002327     0.249986    Uiso  ? Co
   Co11       1.0     0.748832     0.498517     0.250006    Uiso  ? Co
   Co12       1.0     0.249725    -0.002896     0.750003    Uiso  ? Co
   Co13       1.0     0.249334     0.499170     0.750005    Uiso  ? Co
   Co14       1.0     0.749434    -0.000715     0.750006    Uiso  ? Co
   Co15       1.0     0.749155     0.499393     0.749998    Uiso  ? Co
   Cu1        1.0     0.502119     0.498458     0.249983    Uiso  ? Cu
   Mn1        1.0     0.501040     0.498351     0.750022    Uiso  ? Mn
   Mn2        1.0    -0.000995     0.508418     0.250011    Uiso  ? Mn
   Mn3        1.0    -0.001923     0.500225     0.749997    Uiso  ? Mn
   Mn4        1.0     0.253732     0.501177     0.249983    Uiso  ? Mn
