
#======================================================================
# CRYSTAL DATA
#----------------------------------------------------------------------
data_VESTA_phase_1

_chemical_name_common                  'Sm1 Co5                               '
_cell_length_a                         10.228835
_cell_length_b                         4.869111
_cell_length_c                         8.002805
_cell_angle_alpha                      89.999588
_cell_angle_beta                       90.000114
_cell_angle_gamma                      118.424332
_cell_volume                           350.531836
_space_group_name_H-M_alt              'P 1'
_space_group_IT_number                 1

loop_
_space_group_symop_operation_xyz
   'x, y, z'

loop_
   _atom_site_label
   _atom_site_occupancy
   _atom_site_fract_x
   _atom_site_fract_y
   _atom_site_fract_z
   _atom_site_adp_type
   _atom_site_U_iso_or_equiv
   _atom_site_type_symbol
   Sm1        1.0    -0.000007    -0.000018     0.000795    Uiso  ? Sm
   Sm2        1.0     0.500008     0.000020     0.003711    Uiso  ? Sm
   Sm3        1.0    -0.000002     0.000002     0.499202    Uiso  ? Sm
   Sm4        1.0     0.499996    -0.000014     0.496290    Uiso  ? Sm
   Co1        1.0     0.190158     0.690145     0.001706    Uiso  ? Co
   Co2        1.0     0.310661     0.310610    -0.001032    Uiso  ? Co
   Co3        1.0     0.689336     0.689434    -0.001018    Uiso  ? Co
   Co4        1.0     0.809856     0.309849     0.001709    Uiso  ? Co
   Co5        1.0     0.190091     0.690107     0.498288    Uiso  ? Co
   Co6        1.0     0.310668     0.310582     0.501024    Uiso  ? Co
   Co7        1.0     0.689340     0.689395     0.501032    Uiso  ? Co
   Co8        1.0     0.809876     0.309884     0.498297    Uiso  ? Co
   Co9        1.0     0.249924    -0.000369     0.250000    Uiso  ? Co
   Co10       1.0     0.750085     0.000361     0.250008    Uiso  ? Co
   Co11       1.0     0.249902     0.500099     0.250007    Uiso  ? Co
   Co12       1.0     0.750103     0.499895     0.249999    Uiso  ? Co
   Co13       1.0     0.250392     0.000032     0.749995    Uiso  ? Co
   Co14       1.0     0.250414     0.500719     0.749991    Uiso  ? Co
   Co15       1.0     0.749607    -0.000018     0.749998    Uiso  ? Co
   Co16       1.0     0.749590     0.499279     0.750002    Uiso  ? Co
   Cu1        1.0     0.500003     0.500000     0.249994    Uiso  ? Cu
   Mn1        1.0     0.500001     0.500011     0.750006    Uiso  ? Mn
   Mn2        1.0     0.000003     0.499998     0.249967    Uiso  ? Mn
   Mn3        1.0    -0.000003     0.499996     0.750030    Uiso  ? Mn
