
#======================================================================
# CRYSTAL DATA
#----------------------------------------------------------------------
data_VESTA_phase_1

_chemical_name_common                  'Sm1 Co5                               '
_cell_length_a                         10.082603
_cell_length_b                         5.280233
_cell_length_c                         7.994548
_cell_angle_alpha                      90.000000
_cell_angle_beta                       90.000000
_cell_angle_gamma                      121.593414
_cell_volume                           362.535683
_space_group_name_H-M_alt              'P 1'
_space_group_IT_number                 1

loop_
_space_group_symop_operation_xyz
   'x, y, z'

loop_
   _atom_site_label
   _atom_site_occupancy
   _atom_site_fract_x
   _atom_site_fract_y
   _atom_site_fract_z
   _atom_site_adp_type
   _atom_site_U_iso_or_equiv
   _atom_site_type_symbol
   Sm1        1.0     0.000739     0.000683    -0.000000    Uiso  ? Sm
   Sm2        1.0     0.500298     0.000308    -0.000000    Uiso  ? Sm
   Sm3        1.0     0.000303     0.000345     0.500000    Uiso  ? Sm
   Sm4        1.0     0.497691    -0.002244     0.500000    Uiso  ? Sm
   Co1        1.0     0.158300     0.658317     0.000000    Uiso  ? Co
   Co2        1.0     0.342261     0.342165     0.000000    Uiso  ? Co
   Co3        1.0     0.658628     0.658768    -0.000000    Uiso  ? Co
   Co4        1.0     0.842096     0.341969    -0.000000    Uiso  ? Co
   Co5        1.0     0.156856     0.656972     0.500000    Uiso  ? Co
   Co6        1.0     0.335453     0.335600     0.500000    Uiso  ? Co
   Co7        1.0     0.838163     0.338255     0.500000    Uiso  ? Co
   Co8        1.0     0.000746     0.500653     0.250323    Uiso  ? Co
   Co9        1.0     0.501547     0.501446     0.251043    Uiso  ? Co
   Co10       1.0     0.000746     0.500653     0.749677    Uiso  ? Co
   Co11       1.0     0.501547     0.501445     0.748957    Uiso  ? Co
   Fe1        1.0     0.654224     0.654290     0.500000    Uiso  ? Fe
   Mn1        1.0     0.751732     0.501690     0.248836    Uiso  ? Mn
   Mn2        1.0     0.751732     0.501690     0.751163    Uiso  ? Mn
   Mn3        1.0     0.250899     0.500862     0.249967    Uiso  ? Mn
   Mn4        1.0     0.250900     0.500864     0.750033    Uiso  ? Mn
   Mn5        1.0     0.751708     0.001763     0.751155    Uiso  ? Mn
   Mn6        1.0     0.751709     0.001764     0.248844    Uiso  ? Mn
   Mn7        1.0     0.250861     0.000871     0.249985    Uiso  ? Mn
   Mn8        1.0     0.250860     0.000871     0.750015    Uiso  ? Mn
