
#======================================================================
# CRYSTAL DATA
#----------------------------------------------------------------------
data_VESTA_phase_1

_chemical_name_common                  'Sm1 Co5                               '
_cell_length_a                         10.160558
_cell_length_b                         5.089089
_cell_length_c                         7.977500
_cell_angle_alpha                      89.977371
_cell_angle_beta                       90.000801
_cell_angle_gamma                      122.243782
_cell_volume                           348.886987
_space_group_name_H-M_alt              'P 1'
_space_group_IT_number                 1

loop_
_space_group_symop_operation_xyz
   'x, y, z'

loop_
   _atom_site_label
   _atom_site_occupancy
   _atom_site_fract_x
   _atom_site_fract_y
   _atom_site_fract_z
   _atom_site_adp_type
   _atom_site_U_iso_or_equiv
   _atom_site_type_symbol
   Sm1        1.0     0.004718     0.996357     0.995831    Uiso  ? Sm
   Sm2        1.0     0.496273     0.001732     0.995508    Uiso  ? Sm
   Sm3        1.0     0.004249     0.018018     0.504207    Uiso  ? Sm
   Sm4        1.0     0.494752     0.984510     0.504586    Uiso  ? Sm
   Co1        1.0     0.156067     0.672965     0.999202    Uiso  ? Co
   Co2        1.0     0.345309     0.327475     0.999114    Uiso  ? Co
   Co3        1.0     0.655577     0.700127     0.999362    Uiso  ? Co
   Co4        1.0     0.844637     0.297183     0.999037    Uiso  ? Co
   Co5        1.0     0.155835     0.692968     0.500552    Uiso  ? Co
   Co6        1.0     0.340087     0.303846     0.500926    Uiso  ? Co
   Co7        1.0     0.834346     0.348323     0.500848    Uiso  ? Co
   Co8        1.0     0.000625     0.500378     0.250894    Uiso  ? Co
   Co9        1.0     0.249939     0.000075     0.248269    Uiso  ? Co
   Co10       1.0     0.499387     0.496029     0.250922    Uiso  ? Co
   Co11       1.0     0.751082     0.999081     0.254250    Uiso  ? Co
   Co12       1.0     0.002674     0.494468     0.748973    Uiso  ? Co
   Co13       1.0     0.249985     0.000107     0.752187    Uiso  ? Co
   Co14       1.0     0.249665     0.499388     0.749992    Uiso  ? Co
   Co15       1.0     0.498127     0.503586     0.748722    Uiso  ? Co
   Co16       1.0     0.751208     0.999522     0.745558    Uiso  ? Co
   Fe1        1.0     0.663329     0.666579     0.500115    Uiso  ? Fe
   Mn1        1.0     0.750931     0.498140     0.239383    Uiso  ? Mn
   Mn2        1.0     0.751105     0.498936     0.760817    Uiso  ? Mn
   Mn3        1.0     0.250092     0.500208     0.250744    Uiso  ? Mn
