
#======================================================================
# CRYSTAL DATA
#----------------------------------------------------------------------
data_VESTA_phase_1

_chemical_name_common                  'Sm1 Co5                               '
_cell_length_a                         10.008546
_cell_length_b                         5.041051
_cell_length_c                         7.880919
_cell_angle_alpha                      89.814278
_cell_angle_beta                       90.171219
_cell_angle_gamma                      120.822472
_cell_volume                           341.458112
_space_group_name_H-M_alt              'P 1'
_space_group_IT_number                 1

loop_
_space_group_symop_operation_xyz
   'x, y, z'

loop_
   _atom_site_label
   _atom_site_occupancy
   _atom_site_fract_x
   _atom_site_fract_y
   _atom_site_fract_z
   _atom_site_adp_type
   _atom_site_U_iso_or_equiv
   _atom_site_type_symbol
   Sm1        1.0     0.002343     0.977413     0.996312    Uiso  ? Sm
   Sm2        1.0     0.497873     0.022192     0.996607    Uiso  ? Sm
   Sm3        1.0     0.004356     0.015200     0.502351    Uiso  ? Sm
   Sm4        1.0     0.495367     0.985707     0.502464    Uiso  ? Sm
   Co1        1.0     0.162430     0.624093     0.999001    Uiso  ? Co
   Co2        1.0     0.339059     0.375468     0.000189    Uiso  ? Co
   Co3        1.0     0.657294     0.698649     0.999043    Uiso  ? Co
   Co4        1.0     0.841547     0.299305     0.999729    Uiso  ? Co
   Co5        1.0     0.161698     0.692235     0.500383    Uiso  ? Co
   Co6        1.0     0.337508     0.304944     0.500094    Uiso  ? Co
   Co7        1.0     0.833887     0.345663     0.500750    Uiso  ? Co
   Co8        1.0     0.003761     0.493281     0.250301    Uiso  ? Co
   Co9        1.0     0.250144     0.000399     0.241031    Uiso  ? Co
   Co10       1.0     0.497623     0.506469     0.250923    Uiso  ? Co
   Co11       1.0     0.750927     0.998445     0.254539    Uiso  ? Co
   Co12       1.0     0.249745     0.499610     0.258313    Uiso  ? Co
   Co13       1.0     0.001756     0.500792     0.749005    Uiso  ? Co
   Co14       1.0     0.249293     0.000685     0.758956    Uiso  ? Co
   Co15       1.0     0.249102     0.499351     0.741209    Uiso  ? Co
   Co16       1.0     0.496702     0.499364     0.750229    Uiso  ? Co
   Co17       1.0     0.750729     0.001409     0.745202    Uiso  ? Co
   Co18       1.0     0.751069     0.500605     0.758082    Uiso  ? Co
   Fe1        1.0     0.665095     0.660196     0.504581    Uiso  ? Fe
   Mn1        1.0     0.750688     0.498525     0.240706    Uiso  ? Mn
