
#======================================================================
# CRYSTAL DATA
#----------------------------------------------------------------------
data_VESTA_phase_1

_chemical_name_common                  'Sm1 Co5                               '
_cell_length_a                         10.158822
_cell_length_b                         5.192731
_cell_length_c                         8.019909
_cell_angle_alpha                      89.999832
_cell_angle_beta                       90.000145
_cell_angle_gamma                      122.404053
_cell_volume                           357.190799
_space_group_name_H-M_alt              'P 1'
_space_group_IT_number                 1

loop_
_space_group_symop_operation_xyz
   'x, y, z'

loop_
   _atom_site_label
   _atom_site_occupancy
   _atom_site_fract_x
   _atom_site_fract_y
   _atom_site_fract_z
   _atom_site_adp_type
   _atom_site_U_iso_or_equiv
   _atom_site_type_symbol
   Sm1        1.0     0.004339     0.021091     0.000005    Uiso  ? Sm
   Sm2        1.0     0.497570     0.980850     0.000011    Uiso  ? Sm
   Sm3        1.0     0.002254     0.018627     0.499994    Uiso  ? Sm
   Sm4        1.0     0.494835     0.978737     0.499992    Uiso  ? Sm
   Co1        1.0     0.152957     0.698313     0.999993    Uiso  ? Co
   Co2        1.0     0.351723     0.307997     0.000001    Uiso  ? Co
   Co3        1.0     0.664118     0.658206     0.000013    Uiso  ? Co
   Co4        1.0     0.839395     0.346598     0.000013    Uiso  ? Co
   Co5        1.0     0.148447     0.692445     0.500007    Uiso  ? Co
   Co6        1.0     0.340373     0.292368     0.500001    Uiso  ? Co
   Co7        1.0     0.834561     0.339297     0.499985    Uiso  ? Co
   Co8        1.0     0.003187     0.515846     0.250196    Uiso  ? Co
   Co9        1.0     0.250479     0.000852     0.249637    Uiso  ? Co
   Co10       1.0     0.499512     0.488617     0.251810    Uiso  ? Co
   Co11       1.0     0.003193     0.515852     0.749804    Uiso  ? Co
   Co12       1.0     0.250479     0.000859     0.750367    Uiso  ? Co
   Co13       1.0     0.499497     0.488606     0.748192    Uiso  ? Co
   Fe1        1.0     0.657860     0.651621     0.499981    Uiso  ? Fe
   Mn1        1.0     0.750956     0.500352     0.248274    Uiso  ? Mn
   Mn2        1.0     0.750963     0.500362     0.751727    Uiso  ? Mn
   Mn3        1.0     0.249946     0.499287     0.249986    Uiso  ? Mn
   Mn4        1.0     0.249942     0.499291     0.750013    Uiso  ? Mn
   Mn5        1.0     0.751712     0.001975     0.751340    Uiso  ? Mn
   Mn6        1.0     0.751703     0.001951     0.248657    Uiso  ? Mn
