
#======================================================================
# CRYSTAL DATA
#----------------------------------------------------------------------
data_VESTA_phase_1

_chemical_name_common                  'Sm12 Co42                             '
_cell_length_a                         5.019544
_cell_length_b                         5.019544
_cell_length_c                         36.342907
_cell_angle_alpha                      90.000000
_cell_angle_beta                       90.000000
_cell_angle_gamma                      120.000000
_cell_volume                           793.010333
_space_group_name_H-M_alt              'P 1'
_space_group_IT_number                 1

loop_
_space_group_symop_operation_xyz
   'x, y, z'

loop_
   _atom_site_label
   _atom_site_occupancy
   _atom_site_fract_x
   _atom_site_fract_y
   _atom_site_fract_z
   _atom_site_adp_type
   _atom_site_U_iso_or_equiv
   _atom_site_type_symbol
   Sm1        1.0     0.000000     -0.000000     0.948629    Uiso  ? Sm
   Sm2        1.0     0.333333     0.666667     0.717975    Uiso  ? Sm
   Sm3        1.0     0.666667     0.333333     0.282581    Uiso  ? Sm
   Sm4        1.0     0.000000     -0.000000     0.050753    Uiso  ? Sm
   Sm5        1.0     0.333333     0.666667     0.615358    Uiso  ? Sm
   Sm6        1.0     0.666667     0.333333     0.384704    Uiso  ? Sm
   Sm7        1.0     0.000000     -0.000000     0.851925    Uiso  ? Sm
   Sm8        1.0     0.333333     0.666667     0.814800    Uiso  ? Sm
   Sm9        1.0     0.666667     0.333333     0.186152    Uiso  ? Sm
   Sm10       1.0     0.000000     -0.000000     0.147181    Uiso  ? Sm
   Sm11       1.0     0.333333     0.666667     0.518533    Uiso  ? Sm
   Sm12       1.0     0.666667     0.333333     0.481408    Uiso  ? Sm
   Co1        1.0     0.666667     0.333333     0.833329    Uiso  ? Co
   Co2        1.0     0.000000     -0.000000     0.500004    Uiso  ? Co
   Co3        1.0     0.000000     -0.000000     0.721173    Uiso  ? Co
   Co4        1.0     0.333333     0.666667     0.945261    Uiso  ? Co
   Co5        1.0     0.666667     0.333333     0.054023    Uiso  ? Co
   Co6        1.0     0.000000     -0.000000     0.279310    Uiso  ? Co
   Co7        1.0     0.333333     0.666667     0.388073    Uiso  ? Co
   Co8        1.0     0.666667     0.333333     0.612161    Uiso  ? Co
   Co9        1.0     0.666667     0.333333     0.945736    Uiso  ? Co
   Co10       1.0     0.666667     0.333333     0.720992    Uiso  ? Co
   Co11       1.0     0.333333     0.666667     0.278981    Uiso  ? Co
   Co12       1.0     0.333333     0.666667     0.054353    Uiso  ? Co
   Co13       1.0     0.000000     -0.000000     0.612341    Uiso  ? Co
   Co14       1.0     0.000000     -0.000000     0.387597    Uiso  ? Co
   Co15       1.0     0.499750    -0.000499    -0.000189    Uiso  ? Co
   Co16       1.0     0.499750     0.500250    -0.000189    Uiso  ? Co
   Co17       1.0     0.000499     0.500250    -0.000189    Uiso  ? Co
   Co18       1.0     0.166916     0.333833     0.333522    Uiso  ? Co
   Co19       1.0     0.166916     0.833084     0.333522    Uiso  ? Co
   Co20       1.0     0.666167     0.833084     0.333522    Uiso  ? Co
   Co21       1.0     0.833333     0.666667     0.666667    Uiso  ? Co
   Co22       1.0     0.833333     0.166667     0.666667    Uiso  ? Co
   Co23       1.0     0.333333     0.166667     0.666667    Uiso  ? Co
   Co24       1.0     0.997385     0.498692     0.891877    Uiso  ? Co
   Co25       1.0     0.501308     0.002615     0.891877    Uiso  ? Co
   Co26       1.0     0.501308     0.498692     0.891877    Uiso  ? Co
   Co27       1.0     0.335539     0.167769     0.774784    Uiso  ? Co
   Co28       1.0     0.832231     0.664461     0.774784    Uiso  ? Co
   Co29       1.0     0.832231     0.167769     0.774784    Uiso  ? Co
   Co30       1.0     0.667678     0.833839     0.225662    Uiso  ? Co
   Co31       1.0     0.166161     0.332322     0.225662    Uiso  ? Co
   Co32       1.0     0.166161     0.833839     0.225662    Uiso  ? Co
   Co33       1.0    -0.001012     0.499494     0.107671    Uiso  ? Co
   Co34       1.0     0.500506     0.001012     0.107671    Uiso  ? Co
   Co35       1.0     0.500506     0.499494     0.107671    Uiso  ? Co
   Co36       1.0     0.331128     0.165564     0.558549    Uiso  ? Co
   Co37       1.0     0.834436     0.668872     0.558549    Uiso  ? Co
   Co38       1.0     0.834436     0.165564     0.558549    Uiso  ? Co
   Co39       1.0     0.669282     0.834641     0.441457    Uiso  ? Co
   Co40       1.0     0.165359     0.330718     0.441457    Uiso  ? Co
   Co41       1.0     0.165359     0.834641     0.441457    Uiso  ? Co
   Mn1        1.0     0.333333     0.666667     0.166667    Uiso  ? Mn
