
#======================================================================
# CRYSTAL DATA
#----------------------------------------------------------------------
data_VESTA_phase_1

_chemical_name_common                  'Sm12 Co42                             '
_cell_length_a                         5.034585
_cell_length_b                         5.040775
_cell_length_c                         36.679371
_cell_angle_alpha                      89.971535
_cell_angle_beta                       90.044563
_cell_angle_gamma                      119.521530
_cell_volume                           810.003998
_space_group_name_H-M_alt              'P 1'
_space_group_IT_number                 1

loop_
_space_group_symop_operation_xyz
   'x, y, z'

loop_
   _atom_site_label
   _atom_site_occupancy
   _atom_site_fract_x
   _atom_site_fract_y
   _atom_site_fract_z
   _atom_site_adp_type
   _atom_site_U_iso_or_equiv
   _atom_site_type_symbol
   Sm1        1.0     0.000575     0.998083     0.948823    Uiso  ? Sm
   Sm2        1.0     0.333428     0.666416     0.717381    Uiso  ? Sm
   Sm3        1.0     0.664986     0.333237     0.282879    Uiso  ? Sm
   Sm4        1.0     0.000104     0.999340     0.050414    Uiso  ? Sm
   Sm5        1.0     0.334082     0.667276     0.616007    Uiso  ? Sm
   Sm6        1.0     0.665860     0.334639     0.384390    Uiso  ? Sm
   Sm7        1.0     0.001678     0.995470     0.851121    Uiso  ? Sm
   Sm8        1.0     0.331376     0.659537     0.815516    Uiso  ? Sm
   Sm9        1.0     0.664289     0.334889     0.183099    Uiso  ? Sm
   Sm10       1.0     0.997060     0.002452     0.147928    Uiso  ? Sm
   Sm11       1.0     0.338474     0.674931     0.517900    Uiso  ? Sm
   Sm12       1.0     0.674164     0.338884     0.482410    Uiso  ? Sm
   Co1        1.0     0.666711     0.327194     0.833275    Uiso  ? Co
   Co2        1.0     0.331455     0.667679     0.167060    Uiso  ? Co
   Co3        1.0     0.006216     0.006895     0.500160    Uiso  ? Co
   Co4        1.0     0.010264     0.023399     0.720717    Uiso  ? Co
   Co5        1.0     0.328587     0.669937     0.945976    Uiso  ? Co
   Co6        1.0     0.673729     0.325791     0.053727    Uiso  ? Co
   Co7        1.0     0.989055    -0.015483     0.279966    Uiso  ? Co
   Co8        1.0     0.300270     0.650024     0.387631    Uiso  ? Co
   Co9        1.0     0.657154     0.310836     0.612666    Uiso  ? Co
   Co10       1.0     0.673579     0.324572     0.946703    Uiso  ? Co
   Co11       1.0     0.655834     0.308318     0.719793    Uiso  ? Co
   Co12       1.0     0.340637     0.683190     0.280928    Uiso  ? Co
   Co13       1.0     0.326054     0.673549     0.052409    Uiso  ? Co
   Co14       1.0     0.011917     0.024983     0.613579    Uiso  ? Co
   Co15       1.0     0.032352     0.019923     0.386929    Uiso  ? Co
   Co16       1.0     0.500613    -0.000698     0.999659    Uiso  ? Co
   Co17       1.0     0.500713     0.498744     0.999783    Uiso  ? Co
   Co18       1.0     0.000011     0.498665     0.999654    Uiso  ? Co
   Co19       1.0     0.165325     0.334227     0.332503    Uiso  ? Co
   Co20       1.0     0.165259     0.834212     0.333806    Uiso  ? Co
   Co21       1.0     0.665902     0.834437     0.335759    Uiso  ? Co
   Co22       1.0     0.833453     0.666798     0.666731    Uiso  ? Co
   Co23       1.0     0.833625     0.166807     0.666699    Uiso  ? Co
   Co24       1.0     0.333652     0.166799     0.666709    Uiso  ? Co
   Co25       1.0     0.994517     0.495322     0.891652    Uiso  ? Co
   Co26       1.0     0.503374     0.005124     0.891661    Uiso  ? Co
   Co27       1.0     0.339591     0.168583     0.774928    Uiso  ? Co
   Co28       1.0     0.830157     0.169282     0.775182    Uiso  ? Co
   Co29       1.0     0.167002     0.831353     0.224678    Uiso  ? Co
   Co30       1.0     0.006971     0.504601     0.107710    Uiso  ? Co
   Co31       1.0     0.494344     0.991814     0.107704    Uiso  ? Co
   Co32       1.0     0.327604     0.164998     0.558407    Uiso  ? Co
   Co33       1.0     0.838143     0.165637     0.558221    Uiso  ? Co
   Co34       1.0     0.163831     0.328011     0.442016    Uiso  ? Co
   Co35       1.0     0.164395     0.838424     0.442052    Uiso  ? Co
   Mn1        1.0     0.662641     0.833110     0.439985    Uiso  ? Mn
   Mn2        1.0     0.832662     0.663574     0.560053    Uiso  ? Mn
   Mn3        1.0     0.497306     0.500459     0.892524    Uiso  ? Mn
   Mn4        1.0     0.836298     0.670546     0.773328    Uiso  ? Mn
   Mn5        1.0     0.664049     0.831067     0.225789    Uiso  ? Mn
   Mn6        1.0     0.167145     0.334517     0.226689    Uiso  ? Mn
   Mn7        1.0     0.501530     0.497624     0.106730    Uiso  ? Mn
