
#======================================================================
# CRYSTAL DATA
#----------------------------------------------------------------------
data_VESTA_phase_1

_chemical_name_common                  'Sm12 Co42                             '
_cell_length_a                         5.034091
_cell_length_b                         5.046510
_cell_length_c                         36.572693
_cell_angle_alpha                      90.029060
_cell_angle_beta                       90.015572
_cell_angle_gamma                      119.939423
_cell_volume                           805.126999
_space_group_name_H-M_alt              'P 1'
_space_group_IT_number                 1

loop_
_space_group_symop_operation_xyz
   'x, y, z'

loop_
   _atom_site_label
   _atom_site_occupancy
   _atom_site_fract_x
   _atom_site_fract_y
   _atom_site_fract_z
   _atom_site_adp_type
   _atom_site_U_iso_or_equiv
   _atom_site_type_symbol
   Sm1        1.0    -0.000267     0.000455     0.950309    Uiso  ? Sm
   Sm2        1.0     0.333672     0.666155     0.717771    Uiso  ? Sm
   Sm3        1.0     0.664947     0.332112     0.281395    Uiso  ? Sm
   Sm4        1.0     0.000079     0.000168     0.051487    Uiso  ? Sm
   Sm5        1.0     0.334021     0.666978     0.615973    Uiso  ? Sm
   Sm6        1.0     0.666565     0.333470     0.383368    Uiso  ? Sm
   Sm7        1.0     0.002551     0.994398     0.851948    Uiso  ? Sm
   Sm8        1.0     0.331086     0.658384     0.816333    Uiso  ? Sm
   Sm9        1.0     0.662327     0.331142     0.183087    Uiso  ? Sm
   Sm10       1.0     0.997681     0.999095     0.146915    Uiso  ? Sm
   Sm11       1.0     0.339152     0.674695     0.517490    Uiso  ? Sm
   Sm12       1.0     0.674521     0.338835     0.481814    Uiso  ? Sm
   Co1        1.0     0.666627     0.326105     0.834106    Uiso  ? Co
   Co2        1.0     0.329158     0.665011     0.166465    Uiso  ? Co
   Co3        1.0     0.007024     0.007042     0.499707    Uiso  ? Co
   Co4        1.0     0.012633     0.024827     0.721197    Uiso  ? Co
   Co5        1.0     0.314387     0.686306     0.946937    Uiso  ? Co
   Co6        1.0     0.656843     0.348241     0.054760    Uiso  ? Co
   Co7        1.0     0.995803     0.995086     0.278899    Uiso  ? Co
   Co8        1.0     0.305175     0.652800     0.386771    Uiso  ? Co
   Co9        1.0     0.654762     0.309485     0.612602    Uiso  ? Co
   Co10       1.0     0.685179     0.314712     0.947807    Uiso  ? Co
   Co11       1.0     0.654375     0.306445     0.720202    Uiso  ? Co
   Co12       1.0     0.329916     0.666592     0.279219    Uiso  ? Co
   Co13       1.0     0.343570     0.652010     0.054256    Uiso  ? Co
   Co14       1.0     0.014177     0.026149     0.613589    Uiso  ? Co
   Co15       1.0     0.028586     0.014781     0.385720    Uiso  ? Co
   Co16       1.0     0.499770     0.000195     0.002327    Uiso  ? Co
   Co17       1.0     0.500581     0.500169     0.998078    Uiso  ? Co
   Co18       1.0     0.000448     0.500606     0.002205    Uiso  ? Co
   Co19       1.0     0.166675     0.333554     0.331974    Uiso  ? Co
   Co20       1.0     0.166548     0.833134     0.332149    Uiso  ? Co
   Co21       1.0     0.666076     0.832876     0.333716    Uiso  ? Co
   Co22       1.0     0.833715     0.666796     0.666911    Uiso  ? Co
   Co23       1.0     0.833934     0.166605     0.666859    Uiso  ? Co
   Co24       1.0     0.333930     0.166790     0.666901    Uiso  ? Co
   Co25       1.0     0.993141     0.495187     0.892543    Uiso  ? Co
   Co26       1.0     0.504141     0.006697     0.892527    Uiso  ? Co
   Co27       1.0     0.340024     0.168560     0.775672    Uiso  ? Co
   Co28       1.0     0.829294     0.169370     0.775734    Uiso  ? Co
   Co29       1.0     0.169332     0.337497     0.224316    Uiso  ? Co
   Co30       1.0     0.169114     0.832289     0.224105    Uiso  ? Co
   Co31       1.0     0.003760     0.503162     0.107196    Uiso  ? Co
   Co32       1.0     0.496303     0.997996     0.106908    Uiso  ? Co
   Co33       1.0     0.495604     0.501308     0.108586    Uiso  ? Co
   Co34       1.0     0.326674     0.163683     0.558066    Uiso  ? Co
   Co35       1.0     0.838063     0.164446     0.558140    Uiso  ? Co
   Co36       1.0     0.163895     0.326599     0.441162    Uiso  ? Co
   Co37       1.0     0.164455     0.838285     0.441163    Uiso  ? Co
   Mn1        1.0     0.662374     0.832232     0.439429    Uiso  ? Mn
   Mn2        1.0     0.832326     0.662222     0.559900    Uiso  ? Mn
   Mn3        1.0     0.497174     0.501428     0.894706    Uiso  ? Mn
   Mn4        1.0     0.836551     0.670957     0.773895    Uiso  ? Mn
   Mn5        1.0     0.671548     0.835877     0.224702    Uiso  ? Mn
