
#======================================================================
# CRYSTAL DATA
#----------------------------------------------------------------------
data_VESTA_phase_1

_chemical_name_common                  'Sm12 Co42                             '
_cell_length_a                         5.036530
_cell_length_b                         5.037481
_cell_length_c                         36.481659
_cell_angle_alpha                      90.017990
_cell_angle_beta                       89.999031
_cell_angle_gamma                      119.988358
_cell_volume                           801.679902
_space_group_name_H-M_alt              'P 1'
_space_group_IT_number                 1

loop_
_space_group_symop_operation_xyz
   'x, y, z'

loop_
   _atom_site_label
   _atom_site_occupancy
   _atom_site_fract_x
   _atom_site_fract_y
   _atom_site_fract_z
   _atom_site_adp_type
   _atom_site_U_iso_or_equiv
   _atom_site_type_symbol
   Sm1        1.0    -0.000084     0.000015     0.950880    Uiso  ? Sm
   Sm2        1.0     0.332562     0.665644     0.717858    Uiso  ? Sm
   Sm3        1.0     0.666796     0.333413     0.280767    Uiso  ? Sm
   Sm4        1.0     0.000069     0.999971     0.052542    Uiso  ? Sm
   Sm5        1.0     0.333497     0.667570     0.615503    Uiso  ? Sm
   Sm6        1.0     0.666706     0.333392     0.382484    Uiso  ? Sm
   Sm7        1.0     0.002462     0.995642     0.852248    Uiso  ? Sm
   Sm8        1.0     0.331283     0.660157     0.816472    Uiso  ? Sm
   Sm9        1.0     0.667627     0.333112     0.185026    Uiso  ? Sm
   Sm10       1.0     0.001250     0.000311     0.148307    Uiso  ? Sm
   Sm11       1.0     0.337786     0.673251     0.516881    Uiso  ? Sm
   Sm12       1.0     0.673580     0.337786     0.481091    Uiso  ? Sm
   Co1        1.0     0.666693     0.327699     0.834349    Uiso  ? Co
   Co2        1.0     0.334236     0.666685     0.166657    Uiso  ? Co
   Co3        1.0     0.005757     0.005815     0.498969    Uiso  ? Co
   Co4        1.0     0.007780     0.017678     0.721022    Uiso  ? Co
   Co5        1.0     0.315076     0.685438     0.947468    Uiso  ? Co
   Co6        1.0     0.655395     0.344529     0.055374    Uiso  ? Co
   Co7        1.0     0.977486     0.988769     0.277951    Uiso  ? Co
   Co8        1.0     0.296440     0.647988     0.385841    Uiso  ? Co
   Co9        1.0     0.656562     0.315352     0.612355    Uiso  ? Co
   Co10       1.0     0.685031     0.314406     0.948393    Uiso  ? Co
   Co11       1.0     0.656219     0.311064     0.720038    Uiso  ? Co
   Co12       1.0     0.356092     0.678064     0.277897    Uiso  ? Co
   Co13       1.0     0.344772     0.655361     0.055400    Uiso  ? Co
   Co14       1.0     0.011731     0.022274     0.613293    Uiso  ? Co
   Co15       1.0     0.037449     0.019004     0.384943    Uiso  ? Co
   Co16       1.0     0.499100     0.998845     0.002919    Uiso  ? Co
   Co17       1.0     0.500040     0.499958     0.999067    Uiso  ? Co
   Co18       1.0     0.000941     0.500658     0.002892    Uiso  ? Co
   Co19       1.0     0.166886     0.334315     0.330389    Uiso  ? Co
   Co20       1.0     0.166938     0.832719     0.330406    Uiso  ? Co
   Co21       1.0     0.666800     0.833377     0.334291    Uiso  ? Co
   Co22       1.0     0.832884     0.666693     0.666666    Uiso  ? Co
   Co23       1.0     0.833276     0.166535     0.666623    Uiso  ? Co
   Co24       1.0     0.333321     0.166728     0.666735    Uiso  ? Co
   Co25       1.0     0.993256     0.496007     0.892994    Uiso  ? Co
   Co26       1.0     0.503911     0.007269     0.892939    Uiso  ? Co
   Co27       1.0     0.339072     0.169308     0.775640    Uiso  ? Co
   Co28       1.0     0.829445     0.170318     0.775777    Uiso  ? Co
   Co29       1.0     0.663569     0.831374     0.223692    Uiso  ? Co
   Co30       1.0     0.167221     0.334556     0.225079    Uiso  ? Co
   Co31       1.0     0.166861     0.832442     0.225084    Uiso  ? Co
   Co32       1.0     0.001448     0.501174     0.108210    Uiso  ? Co
   Co33       1.0     0.499252     0.998513     0.108222    Uiso  ? Co
   Co34       1.0     0.499162     0.501905     0.109630    Uiso  ? Co
   Co35       1.0     0.325824     0.163068     0.557600    Uiso  ? Co
   Co36       1.0     0.836487     0.163790     0.557699    Uiso  ? Co
   Co37       1.0     0.163340     0.326212     0.440400    Uiso  ? Co
   Co38       1.0     0.163932     0.837365     0.440341    Uiso  ? Co
   Mn1        1.0     0.662342     0.831660     0.438280    Uiso  ? Mn
   Mn2        1.0     0.831045     0.661673     0.559078    Uiso  ? Mn
   Mn3        1.0     0.497413     0.501655     0.895062    Uiso  ? Mn
   Mn4        1.0     0.835981     0.671494     0.774277    Uiso  ? Mn
