
#======================================================================
# CRYSTAL DATA
#----------------------------------------------------------------------
data_VESTA_phase_1

_chemical_name_common                  'Sm12 Co42                             '
_cell_length_a                         5.069513
_cell_length_b                         5.052458
_cell_length_c                         36.520164
_cell_angle_alpha                      90.043648
_cell_angle_beta                       89.984932
_cell_angle_gamma                      119.531929
_cell_volume                           813.881690
_space_group_name_H-M_alt              'P 1'
_space_group_IT_number                 1

loop_
_space_group_symop_operation_xyz
   'x, y, z'

loop_
   _atom_site_label
   _atom_site_occupancy
   _atom_site_fract_x
   _atom_site_fract_y
   _atom_site_fract_z
   _atom_site_adp_type
   _atom_site_U_iso_or_equiv
   _atom_site_type_symbol
   Sm1        1.0     0.001327    -0.000708     0.949462    Uiso  ? Sm
   Sm2        1.0     0.334869     0.667324     0.716596    Uiso  ? Sm
   Sm3        1.0     0.664195     0.331809     0.283361    Uiso  ? Sm
   Sm4        1.0    -0.000650     0.999125     0.050635    Uiso  ? Sm
   Sm5        1.0     0.334545     0.665953     0.615670    Uiso  ? Sm
   Sm6        1.0     0.664206     0.334613     0.384250    Uiso  ? Sm
   Sm7        1.0    -0.003806    -0.007991     0.849618    Uiso  ? Sm
   Sm8        1.0     0.327510     0.654217     0.814602    Uiso  ? Sm
   Sm9        1.0     0.662863     0.336204     0.183350    Uiso  ? Sm
   Sm10       1.0     0.996374     0.005653     0.148316    Uiso  ? Sm
   Sm11       1.0     0.341699     0.678494     0.517647    Uiso  ? Sm
   Sm12       1.0     0.677950     0.342543     0.482309    Uiso  ? Sm
   Co1        1.0     0.662564     0.323785     0.833795    Uiso  ? Co
   Co2        1.0     0.330049     0.670598     0.167539    Uiso  ? Co
   Co3        1.0     0.009728     0.010653     0.499964    Uiso  ? Co
   Co4        1.0     0.015651     0.031881     0.720693    Uiso  ? Co
   Co5        1.0     0.372549     0.682581     0.946490    Uiso  ? Co
   Co6        1.0     0.691138     0.320909     0.054126    Uiso  ? Co
   Co7        1.0     0.978312    -0.038125     0.280320    Uiso  ? Co
   Co8        1.0     0.289060     0.641668     0.387819    Uiso  ? Co
   Co9        1.0     0.652397     0.299794     0.611936    Uiso  ? Co
   Co10       1.0     0.628492     0.315148     0.947231    Uiso  ? Co
   Co11       1.0     0.654969     0.303936     0.719023    Uiso  ? Co
   Co12       1.0     0.351356     0.702931     0.281116    Uiso  ? Co
   Co13       1.0     0.306335     0.676442     0.052905    Uiso  ? Co
   Co14       1.0     0.016747     0.032330     0.612949    Uiso  ? Co
   Co15       1.0     0.039350     0.028661     0.386902    Uiso  ? Co
   Co16       1.0     0.500705     0.999244     0.000455    Uiso  ? Co
   Co17       1.0     0.499031     0.498731     0.002738    Uiso  ? Co
   Co18       1.0     0.998691     0.498261     0.997606    Uiso  ? Co
   Co19       1.0     0.165073     0.334841     0.331489    Uiso  ? Co
   Co20       1.0     0.164172     0.833361     0.334174    Uiso  ? Co
   Co21       1.0     0.665795     0.834840     0.336775    Uiso  ? Co
   Co22       1.0     0.834989     0.667221     0.666014    Uiso  ? Co
   Co23       1.0     0.835052     0.166133     0.666175    Uiso  ? Co
   Co24       1.0     0.334632     0.166511     0.666200    Uiso  ? Co
   Co25       1.0     0.502409     0.002087     0.891028    Uiso  ? Co
   Co26       1.0     0.341932     0.165655     0.774325    Uiso  ? Co
   Co27       1.0     0.826181     0.165476     0.774682    Uiso  ? Co
   Co28       1.0     0.166316     0.829871     0.224771    Uiso  ? Co
   Co29       1.0     0.008099     0.507884     0.108467    Uiso  ? Co
   Co30       1.0     0.493495     0.992895     0.107991    Uiso  ? Co
   Co31       1.0     0.328037     0.165941     0.557885    Uiso  ? Co
   Co32       1.0     0.840550     0.166111     0.557662    Uiso  ? Co
   Co33       1.0     0.165317     0.328405     0.442321    Uiso  ? Co
   Co34       1.0     0.165667     0.840909     0.441962    Uiso  ? Co
   Mn1        1.0     0.663090     0.834416     0.439374    Uiso  ? Mn
   Mn2        1.0     0.833707     0.663286     0.560026    Uiso  ? Mn
   Mn3        1.0     0.502730     0.499640     0.891802    Uiso  ? Mn
   Mn4        1.0     0.834638     0.667532     0.772554    Uiso  ? Mn
   Mn5        1.0     0.663509     0.829864     0.225850    Uiso  ? Mn
   Mn6        1.0     0.165742     0.333269     0.228182    Uiso  ? Mn
   Mn7        1.0     0.501552     0.499508     0.106318    Uiso  ? Mn
   Mn8        1.0     0.999110     0.497682     0.894552    Uiso  ? Mn
