
#======================================================================
# CRYSTAL DATA
#----------------------------------------------------------------------
data_VESTA_phase_1

_chemical_name_common                  'Sm8 Co28                              '
_cell_length_a                         5.046497
_cell_length_b                         5.046497
_cell_length_c                         24.177164
_cell_angle_alpha                      90.000000
_cell_angle_beta                       90.000000
_cell_angle_gamma                      120.000000
_cell_volume                           533.231857
_space_group_name_H-M_alt              'P 1'
_space_group_IT_number                 1

loop_
_space_group_symop_operation_xyz
   'x, y, z'

loop_
   _atom_site_label
   _atom_site_occupancy
   _atom_site_fract_x
   _atom_site_fract_y
   _atom_site_fract_z
   _atom_site_adp_type
   _atom_site_U_iso_or_equiv
   _atom_site_type_symbol
   Sm1        1.0     0.666667     0.333333     0.527843    Uiso  ? Sm
   Sm2        1.0     0.333333     0.666667     0.027843    Uiso  ? Sm
   Sm3        1.0     0.333333     0.666667     0.472157    Uiso  ? Sm
   Sm4        1.0     0.666667     0.333333     0.972157    Uiso  ? Sm
   Sm5        1.0     0.666667     0.333333     0.669937    Uiso  ? Sm
   Sm6        1.0     0.333333     0.666667     0.169938    Uiso  ? Sm
   Sm7        1.0     0.333333     0.666667     0.330063    Uiso  ? Sm
   Sm8        1.0     0.666667     0.333333     0.830063    Uiso  ? Sm
   Co1        1.0     -0.000000     -0.000000     0.500000    Uiso  ? Co
   Co2        1.0     -0.000000     -0.000000     -0.000000    Uiso  ? Co
   Co3        1.0     -0.000000     -0.000000     0.669147    Uiso  ? Co
   Co4        1.0     -0.000000     -0.000000     0.169147    Uiso  ? Co
   Co5        1.0     -0.000000     -0.000000     0.330853    Uiso  ? Co
   Co6        1.0     -0.000000     -0.000000     0.830853    Uiso  ? Co
   Co7        1.0     0.666667     0.333333     0.329283    Uiso  ? Co
   Co8        1.0     0.333333     0.666667     0.829283    Uiso  ? Co
   Co9        1.0     0.333333     0.666667     0.670717    Uiso  ? Co
   Co10       1.0     0.666667     0.333333     0.170717    Uiso  ? Co
   Co11       1.0     0.666349     0.833174     0.587045    Uiso  ? Co
   Co12       1.0     0.166826     0.833174     0.587045    Uiso  ? Co
   Co13       1.0     0.166826     0.333651     0.587045    Uiso  ? Co
   Co14       1.0     0.833174     0.666349     0.087045    Uiso  ? Co
   Co15       1.0     0.833174     0.166826     0.087045    Uiso  ? Co
   Co16       1.0     0.333651     0.166826     0.087045    Uiso  ? Co
   Co17       1.0     0.333651     0.166826     0.412955    Uiso  ? Co
   Co18       1.0     0.833174     0.666349     0.412955    Uiso  ? Co
   Co19       1.0     0.833174     0.166826     0.412955    Uiso  ? Co
   Co20       1.0     0.166826     0.833174     0.912955    Uiso  ? Co
   Co21       1.0     0.666349     0.833174     0.912955    Uiso  ? Co
   Co22       1.0     0.166826     0.333651     0.912955    Uiso  ? Co
   Mn1        1.0     0.833600     0.667200     0.250000    Uiso  ? Mn
   Mn2        1.0     0.667200     0.833600     0.750000    Uiso  ? Mn
   Mn3        1.0     0.332800     0.166400     0.250000    Uiso  ? Mn
   Mn4        1.0     0.166400     0.332800     0.750000    Uiso  ? Mn
   Mn5        1.0     0.833600     0.166400     0.250000    Uiso  ? Mn
   Mn6        1.0     0.166400     0.833600     0.750000    Uiso  ? Mn
