
#======================================================================
# CRYSTAL DATA
#----------------------------------------------------------------------
data_VESTA_phase_1

_chemical_name_common                  'Sm8 Co28                              '
_cell_length_a                         5.017045
_cell_length_b                         5.017045
_cell_length_c                         24.338446
_cell_angle_alpha                      90.000000
_cell_angle_beta                       90.000000
_cell_angle_gamma                      119.003151
_cell_volume                           535.790411
_space_group_name_H-M_alt              'P 1'
_space_group_IT_number                 1

loop_
_space_group_symop_operation_xyz
   'x, y, z'

loop_
   _atom_site_label
   _atom_site_occupancy
   _atom_site_fract_x
   _atom_site_fract_y
   _atom_site_fract_z
   _atom_site_adp_type
   _atom_site_U_iso_or_equiv
   _atom_site_type_symbol
   Sm1        1.0     0.667057     0.332943     0.526368    Uiso  ? Sm
   Sm2        1.0     0.332817     0.667183     0.028972    Uiso  ? Sm
   Sm3        1.0     0.332817     0.667183     0.471028    Uiso  ? Sm
   Sm4        1.0     0.667057     0.332943     0.973632    Uiso  ? Sm
   Sm5        1.0     0.666660     0.333340     0.669276    Uiso  ? Sm
   Sm6        1.0     0.333418     0.666582     0.170430    Uiso  ? Sm
   Sm7        1.0     0.333418     0.666582     0.329570    Uiso  ? Sm
   Sm8        1.0     0.666660     0.333340     0.830724    Uiso  ? Sm
   Co1        1.0    -0.000401     0.000401     0.498307    Uiso  ? Co
   Co2        1.0    -0.000401     0.000401     0.001693    Uiso  ? Co
   Co3        1.0     0.004128    -0.004128     0.666225    Uiso  ? Co
   Co4        1.0    -0.001959     0.001959     0.169403    Uiso  ? Co
   Co5        1.0    -0.001959     0.001959     0.330597    Uiso  ? Co
   Co6        1.0     0.004128    -0.004128     0.833775    Uiso  ? Co
   Co7        1.0     0.668741     0.331259     0.328649    Uiso  ? Co
   Co8        1.0     0.329297     0.670703     0.833187    Uiso  ? Co
   Co9        1.0     0.329297     0.670703     0.666813    Uiso  ? Co
   Co10       1.0     0.668741     0.331259     0.171351    Uiso  ? Co
   Co11       1.0     0.166979     0.833021     0.750000    Uiso  ? Co
   Co12       1.0     0.668456     0.834425     0.586082    Uiso  ? Co
   Co13       1.0     0.166136     0.833864     0.584274    Uiso  ? Co
   Co14       1.0     0.165575     0.331544     0.586082    Uiso  ? Co
   Co15       1.0     0.832556     0.666158     0.088103    Uiso  ? Co
   Co16       1.0     0.832888     0.167112     0.087447    Uiso  ? Co
   Co17       1.0     0.333842     0.167444     0.088103    Uiso  ? Co
   Co18       1.0     0.333842     0.167444     0.411897    Uiso  ? Co
   Co19       1.0     0.832556     0.666158     0.411897    Uiso  ? Co
   Co20       1.0     0.832888     0.167112     0.412553    Uiso  ? Co
   Co21       1.0     0.166136     0.833864     0.915726    Uiso  ? Co
   Co22       1.0     0.668456     0.834425     0.913918    Uiso  ? Co
   Co23       1.0     0.165575     0.331544     0.913918    Uiso  ? Co
   Mn1        1.0     0.834074     0.667644     0.250000    Uiso  ? Mn
   Mn2        1.0     0.667754     0.833127     0.750000    Uiso  ? Mn
   Mn3        1.0     0.332356     0.165926     0.250000    Uiso  ? Mn
   Mn4        1.0     0.166873     0.332246     0.750000    Uiso  ? Mn
   Mn5        1.0     0.833541     0.166459     0.250000    Uiso  ? Mn
