
#======================================================================
# CRYSTAL DATA
#----------------------------------------------------------------------
data_VESTA_phase_1

_chemical_name_common                  'Sm8 Co28                              '
_cell_length_a                         5.001852
_cell_length_b                         5.001852
_cell_length_c                         24.368465
_cell_angle_alpha                      90.000000
_cell_angle_beta                       90.000000
_cell_angle_gamma                      119.013168
_cell_volume                           533.155357
_space_group_name_H-M_alt              'P 1'
_space_group_IT_number                 1

loop_
_space_group_symop_operation_xyz
   'x, y, z'

loop_
   _atom_site_label
   _atom_site_occupancy
   _atom_site_fract_x
   _atom_site_fract_y
   _atom_site_fract_z
   _atom_site_adp_type
   _atom_site_U_iso_or_equiv
   _atom_site_type_symbol
   Sm1        1.0     0.669962     0.336084     0.527540    Uiso  ? Sm
   Sm2        1.0     0.336084     0.669962     0.027540    Uiso  ? Sm
   Sm3        1.0     0.336084     0.669962     0.472460    Uiso  ? Sm
   Sm4        1.0     0.669962     0.336084     0.972460    Uiso  ? Sm
   Sm5        1.0     0.666259     0.332798     0.670850    Uiso  ? Sm
   Sm6        1.0     0.332798     0.666259     0.170849    Uiso  ? Sm
   Sm7        1.0     0.332798     0.666259     0.329151    Uiso  ? Sm
   Sm8        1.0     0.666259     0.332798     0.829150    Uiso  ? Sm
   Co1        1.0     0.002709     0.002709     0.500000    Uiso  ? Co
   Co2        1.0     0.002709     0.002709     0.000000    Uiso  ? Co
   Co3        1.0     0.030594     0.012926     0.667145    Uiso  ? Co
   Co4        1.0     0.012926     0.030594     0.167145    Uiso  ? Co
   Co5        1.0     0.012926     0.030594     0.332855    Uiso  ? Co
   Co6        1.0     0.030594     0.012926     0.832855    Uiso  ? Co
   Co7        1.0     0.652043     0.301554     0.332635    Uiso  ? Co
   Co8        1.0     0.301554     0.652043     0.832635    Uiso  ? Co
   Co9        1.0     0.301554     0.652043     0.667365    Uiso  ? Co
   Co10       1.0     0.652043     0.301554     0.167365    Uiso  ? Co
   Co11       1.0     0.832880     0.166611     0.250000    Uiso  ? Co
   Co12       1.0     0.166611     0.832880     0.750000    Uiso  ? Co
   Co13       1.0     0.166272     0.332865     0.750000    Uiso  ? Co
   Co14       1.0     0.332865     0.166272     0.250000    Uiso  ? Co
   Co15       1.0     0.666478     0.833793     0.589627    Uiso  ? Co
   Co16       1.0     0.165485     0.835020     0.585552    Uiso  ? Co
   Co17       1.0     0.164616     0.330129     0.586052    Uiso  ? Co
   Co18       1.0     0.833793     0.666478     0.089627    Uiso  ? Co
   Co19       1.0     0.835020     0.165485     0.085552    Uiso  ? Co
   Co20       1.0     0.330129     0.164616     0.086052    Uiso  ? Co
   Co21       1.0     0.330129     0.164616     0.413948    Uiso  ? Co
   Co22       1.0     0.833793     0.666478     0.410373    Uiso  ? Co
   Co23       1.0     0.835020     0.165485     0.414448    Uiso  ? Co
   Co24       1.0     0.165485     0.835020     0.914448    Uiso  ? Co
   Co25       1.0     0.666478     0.833793     0.910373    Uiso  ? Co
   Co26       1.0     0.164616     0.330129     0.913948    Uiso  ? Co
   Mn1        1.0     0.833169     0.667301     0.250000    Uiso  ? Mn
   Mn2        1.0     0.667301     0.833169     0.750000    Uiso  ? Mn
