
#======================================================================
# CRYSTAL DATA
#----------------------------------------------------------------------
data_VESTA_phase_1

_chemical_name_common                  'Sm8 Co28                              '
_cell_length_a                         5.026762
_cell_length_b                         5.026762
_cell_length_c                         24.209589
_cell_angle_alpha                      90.000000
_cell_angle_beta                       90.000000
_cell_angle_gamma                      120.000000
_cell_volume                           529.778948
_space_group_name_H-M_alt              'P 1'
_space_group_IT_number                 1

loop_
_space_group_symop_operation_xyz
   'x, y, z'

loop_
   _atom_site_label
   _atom_site_occupancy
   _atom_site_fract_x
   _atom_site_fract_y
   _atom_site_fract_z
   _atom_site_adp_type
   _atom_site_U_iso_or_equiv
   _atom_site_type_symbol
   Sm1        1.0     0.666667     0.333333     0.529252    Uiso  ? Sm
   Sm2        1.0     0.333333     0.666667     0.027822    Uiso  ? Sm
   Sm3        1.0     0.333333     0.666667     0.470748    Uiso  ? Sm
   Sm4        1.0     0.666667     0.333333     0.972178    Uiso  ? Sm
   Sm5        1.0     0.666667     0.333333     0.673973    Uiso  ? Sm
   Sm6        1.0     0.333333     0.666667     0.172729    Uiso  ? Sm
   Sm7        1.0     0.333333     0.666667     0.326027    Uiso  ? Sm
   Sm8        1.0     0.666667     0.333333     0.827271    Uiso  ? Sm
   Co1        1.0     0.000000     0.000000     -0.000000    Uiso  ? Co
   Co2        1.0     0.000000     0.000000     0.668491    Uiso  ? Co
   Co3        1.0     0.000000     0.000000     0.167833    Uiso  ? Co
   Co4        1.0     0.000000     0.000000     0.331509    Uiso  ? Co
   Co5        1.0     0.000000     0.000000     0.832167    Uiso  ? Co
   Co6        1.0     0.666667     0.333333     0.330855    Uiso  ? Co
   Co7        1.0     0.333333     0.666667     0.831689    Uiso  ? Co
   Co8        1.0     0.333333     0.666667     0.669145    Uiso  ? Co
   Co9        1.0     0.666667     0.333333     0.168311    Uiso  ? Co
   Co10       1.0     0.667944     0.833972     0.750436    Uiso  ? Co
   Co11       1.0     0.833972     0.667944     0.249564    Uiso  ? Co
   Co12       1.0     0.833972     0.166028     0.249564    Uiso  ? Co
   Co13       1.0     0.166028     0.833972     0.750436    Uiso  ? Co
   Co14       1.0     0.166028     0.332056     0.750436    Uiso  ? Co
   Co15       1.0     0.332056     0.166028     0.249564    Uiso  ? Co
   Co16       1.0     0.665577     0.832789     0.588469    Uiso  ? Co
   Co17       1.0     0.167211     0.832789     0.588469    Uiso  ? Co
   Co18       1.0     0.167211     0.334423     0.588469    Uiso  ? Co
   Co19       1.0     0.834133     0.668267     0.087559    Uiso  ? Co
   Co20       1.0     0.834133     0.165867     0.087559    Uiso  ? Co
   Co21       1.0     0.331733     0.165867     0.087559    Uiso  ? Co
   Co22       1.0     0.334423     0.167211     0.411531    Uiso  ? Co
   Co23       1.0     0.832789     0.665577     0.411531    Uiso  ? Co
   Co24       1.0     0.832789     0.167211     0.411531    Uiso  ? Co
   Co25       1.0     0.165867     0.834133     0.912441    Uiso  ? Co
   Co26       1.0     0.668267     0.834133     0.912441    Uiso  ? Co
   Co27       1.0     0.165867     0.331733     0.912441    Uiso  ? Co
   Mn1        1.0     0.000000     0.000000     0.500000    Uiso  ? Mn
