
#======================================================================
# CRYSTAL DATA
#----------------------------------------------------------------------
data_VESTA_phase_1

_chemical_name_common                  'Sm1 Co5                               '
_cell_length_a                         10.166288
_cell_length_b                         5.144837
_cell_length_c                         8.034369
_cell_angle_alpha                      89.830742
_cell_angle_beta                       89.993172
_cell_angle_gamma                      122.460800
_cell_volume                           354.569550
_space_group_name_H-M_alt              'P 1'
_space_group_IT_number                 1

loop_
_space_group_symop_operation_xyz
   'x, y, z'

loop_
   _atom_site_label
   _atom_site_occupancy
   _atom_site_fract_x
   _atom_site_fract_y
   _atom_site_fract_z
   _atom_site_adp_type
   _atom_site_U_iso_or_equiv
   _atom_site_type_symbol
   Sm1        1.0     0.003305     0.016462     0.001203    Uiso  ? Sm
   Sm2        1.0     0.498180     0.983703     0.001056    Uiso  ? Sm
   Sm3        1.0     0.002785     0.016825     0.499335    Uiso  ? Sm
   Sm4        1.0     0.495059     0.983481     0.498535    Uiso  ? Sm
   Co1        1.0     0.152128     0.695856     0.001200    Uiso  ? Co
   Co2        1.0     0.350953     0.308255     0.999562    Uiso  ? Co
   Co3        1.0     0.664334     0.665326     0.000481    Uiso  ? Co
   Co4        1.0     0.837854     0.335908     0.000658    Uiso  ? Co
   Co5        1.0     0.148731     0.691091     0.499185    Uiso  ? Co
   Co6        1.0     0.342873     0.299761     0.499463    Uiso  ? Co
   Co7        1.0     0.834050     0.336663     0.500968    Uiso  ? Co
   Co8        1.0     0.000478     0.502141     0.250520    Uiso  ? Co
   Co9        1.0     0.250226     0.000585     0.249865    Uiso  ? Co
   Co10       1.0     0.499554     0.494886     0.250223    Uiso  ? Co
   Co11       1.0     0.750702     0.998063     0.251068    Uiso  ? Co
   Co12       1.0     0.003413     0.514989     0.750262    Uiso  ? Co
   Co13       1.0     0.250564     0.000865     0.749963    Uiso  ? Co
   Co14       1.0     0.500249     0.490252     0.748210    Uiso  ? Co
   Fe1        1.0     0.660805     0.664921     0.497301    Uiso  ? Fe
   Mn1        1.0     0.750390     0.496387     0.247336    Uiso  ? Mn
   Mn2        1.0     0.751547     0.501441     0.752879    Uiso  ? Mn
   Mn3        1.0     0.249813     0.499731     0.249447    Uiso  ? Mn
   Mn4        1.0     0.250241     0.500197     0.750584    Uiso  ? Mn
   Mn5        1.0     0.751767     0.002213     0.750696    Uiso  ? Mn
