
#======================================================================
# CRYSTAL DATA
#----------------------------------------------------------------------
data_VESTA_phase_1

_chemical_name_common                  'Sm1 Co5                               '
_cell_length_a                         10.103569
_cell_length_b                         4.881260
_cell_length_c                         7.939744
_cell_angle_alpha                      90.000137
_cell_angle_beta                       89.999893
_cell_angle_gamma                      118.896736
_cell_volume                           342.819506
_space_group_name_H-M_alt              'P 1'
_space_group_IT_number                 1

loop_
_space_group_symop_operation_xyz
   'x, y, z'

loop_
   _atom_site_label
   _atom_site_occupancy
   _atom_site_fract_x
   _atom_site_fract_y
   _atom_site_fract_z
   _atom_site_adp_type
   _atom_site_U_iso_or_equiv
   _atom_site_type_symbol
   Sm1        1.0     0.999999     0.999995     0.002148    Uiso  ? Sm
   Sm2        1.0     0.500010     0.000011     0.003169    Uiso  ? Sm
   Sm3        1.0     0.000008     0.000013     0.497851    Uiso  ? Sm
   Sm4        1.0     0.499995     0.999994     0.496829    Uiso  ? Sm
   Co1        1.0     0.178882     0.678909     0.001829    Uiso  ? Co
   Co2        1.0     0.315875     0.315853     0.997690    Uiso  ? Co
   Co3        1.0     0.684112     0.684141     0.997681    Uiso  ? Co
   Co4        1.0     0.821116     0.321077     0.001825    Uiso  ? Co
   Co5        1.0     0.178881     0.678911     0.498174    Uiso  ? Co
   Co6        1.0     0.315863     0.315826     0.502314    Uiso  ? Co
   Co7        1.0     0.684114     0.684142     0.502321    Uiso  ? Co
   Co8        1.0     0.821121     0.321092     0.498171    Uiso  ? Co
   Co9        1.0     0.000006     0.500022     0.250004    Uiso  ? Co
   Co10       1.0     0.244553     0.995352     0.250007    Uiso  ? Co
   Co11       1.0     0.755450     0.004644     0.250009    Uiso  ? Co
   Co12       1.0     0.244561     0.493478     0.250009    Uiso  ? Co
   Co13       1.0     0.755445     0.506536     0.250013    Uiso  ? Co
   Co14       1.0     0.000010     0.500016     0.749996    Uiso  ? Co
   Co15       1.0     0.243477     0.993832     0.749993    Uiso  ? Co
   Co16       1.0     0.243498     0.493335     0.749994    Uiso  ? Co
   Co17       1.0     0.756524     0.006172     0.749988    Uiso  ? Co
   Co18       1.0     0.756502     0.506653     0.749991    Uiso  ? Co
   Cu1        1.0     0.500001     0.499999     0.250008    Uiso  ? Cu
   Mn1        1.0     0.499996     0.499997     0.749987    Uiso  ? Mn
