
#======================================================================
# CRYSTAL DATA
#----------------------------------------------------------------------
data_VESTA_phase_1

_chemical_name_common                  'Sm1 Co5                               '
_cell_length_a                         10.305187
_cell_length_b                         4.945545
_cell_length_c                         8.033758
_cell_angle_alpha                      90.000015
_cell_angle_beta                       90.000145
_cell_angle_gamma                      119.366287
_cell_volume                           356.826793
_space_group_name_H-M_alt              'P 1'
_space_group_IT_number                 1

loop_
_space_group_symop_operation_xyz
   'x, y, z'

loop_
   _atom_site_label
   _atom_site_occupancy
   _atom_site_fract_x
   _atom_site_fract_y
   _atom_site_fract_z
   _atom_site_adp_type
   _atom_site_U_iso_or_equiv
   _atom_site_type_symbol
   Sm1        1.0    -0.000185     0.014578    -0.001175    Uiso  ? Sm
   Sm2        1.0     0.500592    -0.012607    -0.000562    Uiso  ? Sm
   Sm3        1.0    -0.000188     0.014575     0.501177    Uiso  ? Sm
   Sm4        1.0     0.500597    -0.012603     0.500562    Uiso  ? Sm
   Co1        1.0     0.171408     0.682949     0.000718    Uiso  ? Co
   Co2        1.0     0.318412     0.299942    -0.002257    Uiso  ? Co
   Co3        1.0     0.684783     0.670046    -0.002850    Uiso  ? Co
   Co4        1.0     0.826344     0.338087     0.001549    Uiso  ? Co
   Co5        1.0     0.171409     0.682957     0.499293    Uiso  ? Co
   Co6        1.0     0.318423     0.299961     0.502261    Uiso  ? Co
   Co7        1.0     0.684777     0.670020     0.502841    Uiso  ? Co
   Co8        1.0     0.826350     0.338093     0.498446    Uiso  ? Co
   Co9        1.0     0.252573     0.002335     0.249999    Uiso  ? Co
   Co10       1.0     0.747666     0.498998     0.249997    Uiso  ? Co
   Co11       1.0     0.249453    -0.000409     0.750004    Uiso  ? Co
   Co12       1.0     0.749021    -0.003931     0.749990    Uiso  ? Co
   Co13       1.0     0.749160     0.494705     0.749997    Uiso  ? Co
   Cu1        1.0     0.500539     0.491088     0.249997    Uiso  ? Cu
   Mn1        1.0     0.502261     0.487654     0.750001    Uiso  ? Mn
   Mn2        1.0    -0.000174     0.527707     0.249999    Uiso  ? Mn
   Mn3        1.0    -0.003427     0.511267     0.750002    Uiso  ? Mn
   Mn4        1.0     0.252664     0.503652     0.250002    Uiso  ? Mn
   Mn5        1.0     0.747022    -0.001556     0.250001    Uiso  ? Mn
   Mn6        1.0     0.250520     0.502491     0.750006    Uiso  ? Mn
