
#======================================================================
# CRYSTAL DATA
#----------------------------------------------------------------------
data_VESTA_phase_1

_chemical_name_common                  'Sm1 Co5                               '
_cell_length_a                         10.128860
_cell_length_b                         5.043337
_cell_length_c                         7.819604
_cell_angle_alpha                      89.998528
_cell_angle_beta                       90.112877
_cell_angle_gamma                      119.843979
_cell_volume                           346.476319
_space_group_name_H-M_alt              'P 1'
_space_group_IT_number                 1

loop_
_space_group_symop_operation_xyz
   'x, y, z'

loop_
   _atom_site_label
   _atom_site_occupancy
   _atom_site_fract_x
   _atom_site_fract_y
   _atom_site_fract_z
   _atom_site_adp_type
   _atom_site_U_iso_or_equiv
   _atom_site_type_symbol
   Sm1        1.0     0.002197     0.002166    -0.001230    Uiso  ? Sm
   Sm2        1.0     0.498707    -0.001169    -0.001936    Uiso  ? Sm
   Sm3        1.0    -0.000496    -0.000502     0.502273    Uiso  ? Sm
   Sm4        1.0     0.499499    -0.000540     0.503641    Uiso  ? Sm
   Co1        1.0     0.335744     0.336074    -0.001038    Uiso  ? Co
   Co2        1.0     0.322222     0.322007     0.501220    Uiso  ? Co
   Co3        1.0     0.676735     0.676802     0.501598    Uiso  ? Co
   Co4        1.0     0.000203     0.500188     0.250161    Uiso  ? Co
   Co5        1.0     0.246910    -0.000401     0.249675    Uiso  ? Co
   Co6        1.0     0.751727    -0.000723     0.248625    Uiso  ? Co
   Co7        1.0     0.246863     0.493933     0.249744    Uiso  ? Co
   Co8        1.0     0.751811     0.504531     0.248604    Uiso  ? Co
   Co9        1.0     0.000388     0.500344     0.749461    Uiso  ? Co
   Co10       1.0     0.250625     0.001393     0.751378    Uiso  ? Co
   Co11       1.0     0.250680     0.499702     0.751250    Uiso  ? Co
   Co12       1.0     0.498479     0.498426     0.744592    Uiso  ? Co
   Co13       1.0     0.749942     0.000231     0.750554    Uiso  ? Co
   Co14       1.0     0.749926     0.499665     0.750528    Uiso  ? Co
   Mn1        1.0     0.498568     0.498633     0.255691    Uiso  ? Mn
   Fe1        1.0     0.167031     0.666992     0.501073    Uiso  ? Fe
   Fe2        1.0     0.832792     0.332867     0.499586    Uiso  ? Fe
   Fe3        1.0     0.165941     0.665709    -0.000674    Uiso  ? Fe
   Fe4        1.0     0.833767     0.333908    -0.000670    Uiso  ? Fe
   Fe5        1.0     0.669741     0.669765    -0.004106    Uiso  ? Fe
