
#======================================================================
# CRYSTAL DATA
#----------------------------------------------------------------------
data_VESTA_phase_1

_chemical_name_common                  'Sm12 Co42                             '
_cell_length_a                         5.015722
_cell_length_b                         5.015722
_cell_length_c                         36.439144
_cell_angle_alpha                      90.000000
_cell_angle_beta                       90.000000
_cell_angle_gamma                      120.000000
_cell_volume                           793.899927
_space_group_name_H-M_alt              'P 1'
_space_group_IT_number                 1

loop_
_space_group_symop_operation_xyz
   'x, y, z'

loop_
   _atom_site_label
   _atom_site_occupancy
   _atom_site_fract_x
   _atom_site_fract_y
   _atom_site_fract_z
   _atom_site_adp_type
   _atom_site_U_iso_or_equiv
   _atom_site_type_symbol
   Sm1        1.0     0.000000     0.000000     0.947652    Uiso  ? Sm
   Sm2        1.0     0.333333     0.666667     0.717777    Uiso  ? Sm
   Sm3        1.0     0.666667     0.333333     0.283850    Uiso  ? Sm
   Sm4        1.0     0.000000     0.000000     0.049483    Uiso  ? Sm
   Sm5        1.0     0.333333     0.666667     0.615556    Uiso  ? Sm
   Sm6        1.0     0.666667     0.333333     0.385681    Uiso  ? Sm
   Sm7        1.0     0.000000     0.000000     0.851257    Uiso  ? Sm
   Sm8        1.0     0.333333     0.666667     0.814221    Uiso  ? Sm
   Sm9        1.0     0.666667     0.333333     0.188155    Uiso  ? Sm
   Sm10       1.0     0.000000     0.000000     0.145179    Uiso  ? Sm
   Sm11       1.0     0.333333     0.666667     0.519113    Uiso  ? Sm
   Sm12       1.0     0.666667     0.333333     0.482077    Uiso  ? Sm
   Co1        1.0     0.666667     0.333333     0.832706    Uiso  ? Co
   Co2        1.0     0.000000     0.000000     0.500627    Uiso  ? Co
   Co3        1.0     0.000000     0.000000     0.720952    Uiso  ? Co
   Co4        1.0     0.333333     0.666667     0.944507    Uiso  ? Co
   Co5        1.0     0.666667     0.333333     0.053259    Uiso  ? Co
   Co6        1.0     0.000000     0.000000     0.280074    Uiso  ? Co
   Co7        1.0     0.333333     0.666667     0.388826    Uiso  ? Co
   Co8        1.0     0.666667     0.333333     0.612381    Uiso  ? Co
   Co9        1.0     0.666667     0.333333     0.944564    Uiso  ? Co
   Co10       1.0     0.666667     0.333333     0.720786    Uiso  ? Co
   Co11       1.0     0.333333     0.666667     0.280579    Uiso  ? Co
   Co12       1.0     0.333333     0.666667     0.052755    Uiso  ? Co
   Co13       1.0     0.000000     0.000000     0.612548    Uiso  ? Co
   Co14       1.0     0.000000     0.000000     0.388769    Uiso  ? Co
   Co15       1.0     0.500196     0.000392    -0.001292    Uiso  ? Co
   Co16       1.0     0.500196     0.499804    -0.001292    Uiso  ? Co
   Co17       1.0    -0.000392     0.499804    -0.001292    Uiso  ? Co
   Co18       1.0     0.166470     0.332941     0.334626    Uiso  ? Co
   Co19       1.0     0.166470     0.833530     0.334626    Uiso  ? Co
   Co20       1.0     0.667059     0.833530     0.334626    Uiso  ? Co
   Co21       1.0     0.833333     0.666667     0.666667    Uiso  ? Co
   Co22       1.0     0.833333     0.166667     0.666667    Uiso  ? Co
   Co23       1.0     0.333333     0.166667     0.666667    Uiso  ? Co
   Co24       1.0     0.997920     0.498960     0.891037    Uiso  ? Co
   Co25       1.0     0.501040     0.002080     0.891037    Uiso  ? Co
   Co26       1.0     0.501040     0.498960     0.891037    Uiso  ? Co
   Co27       1.0     0.335482     0.167741     0.774386    Uiso  ? Co
   Co28       1.0     0.832259     0.664518     0.774386    Uiso  ? Co
   Co29       1.0     0.832259     0.167741     0.774386    Uiso  ? Co
   Co30       1.0     0.667228     0.833614     0.226966    Uiso  ? Co
   Co31       1.0     0.166386     0.332772     0.226966    Uiso  ? Co
   Co32       1.0     0.166386     0.833614     0.226966    Uiso  ? Co
   Co33       1.0    -0.000561     0.499720     0.106367    Uiso  ? Co
   Co34       1.0     0.500280     0.000561     0.106367    Uiso  ? Co
   Co35       1.0     0.500280     0.499720     0.106367    Uiso  ? Co
   Co36       1.0     0.331185     0.165592     0.558948    Uiso  ? Co
   Co37       1.0     0.834408     0.668815     0.558948    Uiso  ? Co
   Co38       1.0     0.834408     0.165592     0.558948    Uiso  ? Co
   Co39       1.0     0.668747     0.834374     0.442296    Uiso  ? Co
   Co40       1.0     0.165626     0.331253     0.442296    Uiso  ? Co
   Co41       1.0     0.165626     0.834374     0.442296    Uiso  ? Co
   Zn1        1.0     0.333333     0.666667     0.166667    Uiso  ? Zn
