
#======================================================================
# CRYSTAL DATA
#----------------------------------------------------------------------
data_VESTA_phase_1

_chemical_name_common                  'Sm12 Co42                             '
_cell_length_a                         5.064569
_cell_length_b                         5.053426
_cell_length_c                         36.489845
_cell_angle_alpha                      90.021843
_cell_angle_beta                       89.995583
_cell_angle_gamma                      120.598312
_cell_volume                           803.861124
_space_group_name_H-M_alt              'P 1'
_space_group_IT_number                 1

loop_
_space_group_symop_operation_xyz
   'x, y, z'

loop_
   _atom_site_label
   _atom_site_occupancy
   _atom_site_fract_x
   _atom_site_fract_y
   _atom_site_fract_z
   _atom_site_adp_type
   _atom_site_U_iso_or_equiv
   _atom_site_type_symbol
   Sm1        1.0     0.999505     0.999316     0.947460    Uiso  ? Sm
   Sm2        1.0     0.332798     0.666337     0.721957    Uiso  ? Sm
   Sm3        1.0     0.666074     0.332883     0.280071    Uiso  ? Sm
   Sm4        1.0     0.999320     0.999946     0.053397    Uiso  ? Sm
   Sm5        1.0     0.334905     0.667338     0.611357    Uiso  ? Sm
   Sm6        1.0     0.667093     0.333837     0.385749    Uiso  ? Sm
   Sm7        1.0     0.999118     0.998001     0.852410    Uiso  ? Sm
   Sm8        1.0     0.332763     0.665308     0.816274    Uiso  ? Sm
   Sm9        1.0     0.663997     0.333196     0.184916    Uiso  ? Sm
   Sm10       1.0     0.996627    -0.000039     0.148495    Uiso  ? Sm
   Sm11       1.0     0.338073     0.668586     0.517004    Uiso  ? Sm
   Sm12       1.0     0.670254     0.335500     0.480888    Uiso  ? Sm
   Co1        1.0     0.666364     0.331771     0.834368    Uiso  ? Co
   Co2        1.0     0.330035     0.666511     0.166707    Uiso  ? Co
   Co3        1.0     0.003802     0.001921     0.498948    Uiso  ? Co
   Co4        1.0     0.021135     0.009545     0.723672    Uiso  ? Co
   Co5        1.0     0.315838     0.683598     0.944982    Uiso  ? Co
   Co6        1.0     0.682963     0.315415     0.055848    Uiso  ? Co
   Co7        1.0     0.030021     0.016639     0.277513    Uiso  ? Co
   Co8        1.0     0.303443     0.649983     0.388296    Uiso  ? Co
   Co9        1.0     0.646815     0.325481     0.609655    Uiso  ? Co
   Co10       1.0     0.683099     0.315205     0.945526    Uiso  ? Co
   Co11       1.0     0.643353     0.322506     0.723129    Uiso  ? Co
   Co12       1.0     0.302383     0.648971     0.278018    Uiso  ? Co
   Co13       1.0     0.315924     0.684268     0.055386    Uiso  ? Co
   Co14       1.0     0.023713     0.009625     0.610177    Uiso  ? Co
   Co15       1.0     0.030326     0.017630     0.387780    Uiso  ? Co
   Co16       1.0     0.499460     0.999652     0.000407    Uiso  ? Co
   Co17       1.0     0.999594     0.499771     0.000408    Uiso  ? Co
   Co18       1.0     0.166520     0.333229     0.332914    Uiso  ? Co
   Co19       1.0     0.166494     0.833307     0.332931    Uiso  ? Co
   Co20       1.0     0.333859     0.166924     0.666634    Uiso  ? Co
   Co21       1.0     0.994853     0.497665     0.891601    Uiso  ? Co
   Co22       1.0     0.500614     0.004052     0.891542    Uiso  ? Co
   Co23       1.0     0.499074     0.498755     0.893886    Uiso  ? Co
   Co24       1.0     0.337248     0.168081     0.777116    Uiso  ? Co
   Co25       1.0     0.832167     0.663617     0.775691    Uiso  ? Co
   Co26       1.0     0.831687     0.168088     0.775489    Uiso  ? Co
   Co27       1.0     0.665435     0.833155     0.226029    Uiso  ? Co
   Co28       1.0     0.168003     0.337139     0.224044    Uiso  ? Co
   Co29       1.0     0.168731     0.831390     0.224373    Uiso  ? Co
   Co30       1.0     0.003825     0.501782     0.109332    Uiso  ? Co
   Co31       1.0     0.496903     0.995712     0.109408    Uiso  ? Co
   Co32       1.0     0.498673     0.499523     0.107065    Uiso  ? Co
   Co33       1.0     0.330479     0.165176     0.556205    Uiso  ? Co
   Co34       1.0     0.837260     0.670426     0.557541    Uiso  ? Co
   Co35       1.0     0.836762     0.166965     0.557882    Uiso  ? Co
   Co36       1.0     0.668251     0.834219     0.439739    Uiso  ? Co
   Co37       1.0     0.165205     0.329408     0.441754    Uiso  ? Co
   Co38       1.0     0.165404     0.835995     0.441389    Uiso  ? Co
   Zn1        1.0     0.666435     0.833288     0.332890    Uiso  ? Zn
   Zn2        1.0     0.499543     0.499695     0.000393    Uiso  ? Zn
   Zn3        1.0     0.833909     0.666863     0.666715    Uiso  ? Zn
   Zn4        1.0     0.833871     0.166848     0.666636    Uiso  ? Zn
