
#======================================================================
# CRYSTAL DATA
#----------------------------------------------------------------------
data_VESTA_phase_1

_chemical_name_common                  'Sm12 Co42                             '
_cell_length_a                         5.016452
_cell_length_b                         5.016674
_cell_length_c                         36.368816
_cell_angle_alpha                      90.001381
_cell_angle_beta                       89.999115
_cell_angle_gamma                      120.000381
_cell_volume                           792.630281
_space_group_name_H-M_alt              'P 1'
_space_group_IT_number                 1

loop_
_space_group_symop_operation_xyz
   'x, y, z'

loop_
   _atom_site_label
   _atom_site_occupancy
   _atom_site_fract_x
   _atom_site_fract_y
   _atom_site_fract_z
   _atom_site_adp_type
   _atom_site_U_iso_or_equiv
   _atom_site_type_symbol
   Sm1        1.0     0.000007     0.000002     0.949676    Uiso  ? Sm
   Sm2        1.0     0.333344     0.666668     0.717654    Uiso  ? Sm
   Sm3        1.0     0.666649     0.333328     0.282186    Uiso  ? Sm
   Sm4        1.0     0.000012     0.000001     0.052028    Uiso  ? Sm
   Sm5        1.0     0.333314     0.666655     0.615152    Uiso  ? Sm
   Sm6        1.0     0.666654     0.333339     0.384678    Uiso  ? Sm
   Sm7        1.0     0.000008     0.000011     0.851750    Uiso  ? Sm
   Sm8        1.0     0.333333     0.666665     0.814340    Uiso  ? Sm
   Sm9        1.0     0.666675     0.333337     0.185486    Uiso  ? Sm
   Sm10       1.0     0.000013     0.000005     0.148475    Uiso  ? Sm
   Sm11       1.0     0.333333     0.666669     0.518478    Uiso  ? Sm
   Sm12       1.0     0.666666     0.333343     0.481354    Uiso  ? Sm
   Co1        1.0     0.666669     0.333347     0.832236    Uiso  ? Co
   Co2        1.0     0.333345     0.666673     0.167319    Uiso  ? Co
   Co3        1.0     0.000013     0.000015     0.499921    Uiso  ? Co
   Co4        1.0     0.000032     0.999991     0.720619    Uiso  ? Co
   Co5        1.0     0.333351     0.666681     0.945088    Uiso  ? Co
   Co6        1.0     0.666704     0.333338     0.055917    Uiso  ? Co
   Co7        1.0     0.000004     0.000007     0.279198    Uiso  ? Co
   Co8        1.0     0.333292     0.666651     0.387911    Uiso  ? Co
   Co9        1.0     0.666656     0.333315     0.611974    Uiso  ? Co
   Co10       1.0     0.333293     0.666645     0.279123    Uiso  ? Co
   Co11       1.0     0.666678     0.333314     0.720633    Uiso  ? Co
   Co12       1.0     0.333322     0.666652     0.054272    Uiso  ? Co
   Co13       1.0     0.999963    -0.000004     0.612079    Uiso  ? Co
   Co14       1.0     0.000015     0.000027     0.387714    Uiso  ? Co
   Co15       1.0     0.499374     0.998726     0.001167    Uiso  ? Co
   Co16       1.0     0.499374     0.500648     0.001168    Uiso  ? Co
   Co17       1.0     0.001295     0.500647     0.001166    Uiso  ? Co
   Co18       1.0     0.166696     0.333452     0.333478    Uiso  ? Co
   Co19       1.0     0.166713     0.833268     0.333481    Uiso  ? Co
   Co20       1.0     0.666552     0.833295     0.333477    Uiso  ? Co
   Co21       1.0     0.833330     0.666653     0.666359    Uiso  ? Co
   Co22       1.0     0.833329     0.166684     0.666359    Uiso  ? Co
   Co23       1.0     0.333355     0.166679     0.666356    Uiso  ? Co
   Co24       1.0     0.000530     0.500272     0.890401    Uiso  ? Co
   Co25       1.0     0.499735    -0.000526     0.890401    Uiso  ? Co
   Co26       1.0     0.499736     0.500274     0.890403    Uiso  ? Co
   Co27       1.0     0.335213     0.167593     0.774250    Uiso  ? Co
   Co28       1.0     0.832388     0.664787     0.774250    Uiso  ? Co
   Co29       1.0     0.832393     0.167592     0.774247    Uiso  ? Co
   Co30       1.0     0.665065     0.832531     0.225495    Uiso  ? Co
   Co31       1.0     0.167460     0.334914     0.225493    Uiso  ? Co
   Co32       1.0     0.167465     0.832535     0.225494    Uiso  ? Co
   Co33       1.0     0.004490     0.502239     0.108776    Uiso  ? Co
   Co34       1.0     0.497773     0.995511     0.108774    Uiso  ? Co
   Co35       1.0     0.497785     0.502240     0.108773    Uiso  ? Co
   Co36       1.0     0.331212     0.165585     0.558386    Uiso  ? Co
   Co37       1.0     0.834373     0.668783     0.558387    Uiso  ? Co
   Co38       1.0     0.834386     0.165609     0.558386    Uiso  ? Co
   Co39       1.0     0.668768     0.834388     0.441454    Uiso  ? Co
   Co40       1.0     0.165597     0.331212     0.441456    Uiso  ? Co
   Co41       1.0     0.165593     0.834396     0.441456    Uiso  ? Co
   Zn1        1.0     0.666676     0.333339     0.945443    Uiso  ? Zn
