
#======================================================================
# CRYSTAL DATA
#----------------------------------------------------------------------
data_VESTA_phase_1

_chemical_name_common                  'Sm12 Co42                             '
_cell_length_a                         5.081811
_cell_length_b                         5.005240
_cell_length_c                         36.373211
_cell_angle_alpha                      90.028549
_cell_angle_beta                       89.998802
_cell_angle_gamma                      120.498276
_cell_volume                           797.173966
_space_group_name_H-M_alt              'P 1'
_space_group_IT_number                 1

loop_
_space_group_symop_operation_xyz
   'x, y, z'

loop_
   _atom_site_label
   _atom_site_occupancy
   _atom_site_fract_x
   _atom_site_fract_y
   _atom_site_fract_z
   _atom_site_adp_type
   _atom_site_U_iso_or_equiv
   _atom_site_type_symbol
   Sm1        1.0     0.998925    -0.000991     0.946391    Uiso  ? Sm
   Sm2        1.0     0.333558     0.666903     0.717748    Uiso  ? Sm
   Sm3        1.0     0.666118     0.333146     0.280394    Uiso  ? Sm
   Sm4        1.0     0.999209     0.000152     0.052910    Uiso  ? Sm
   Sm5        1.0     0.333457     0.666747     0.615601    Uiso  ? Sm
   Sm6        1.0     0.668332     0.334569     0.386942    Uiso  ? Sm
   Sm7        1.0     0.001507     0.998849     0.850968    Uiso  ? Sm
   Sm8        1.0     0.336071     0.666841     0.814131    Uiso  ? Sm
   Sm9        1.0     0.662764     0.332960     0.185023    Uiso  ? Sm
   Sm10       1.0     0.996535     0.000340     0.148311    Uiso  ? Sm
   Sm11       1.0     0.336425     0.665835     0.519276    Uiso  ? Sm
   Sm12       1.0     0.670372     0.334163     0.482432    Uiso  ? Sm
   Co1        1.0     0.668950     0.332234     0.832682    Uiso  ? Co
   Co2        1.0     0.328880     0.666732     0.166651    Uiso  ? Co
   Co3        1.0     0.004372     0.000687     0.500651    Uiso  ? Co
   Co4        1.0     0.976623    -0.012020     0.720897    Uiso  ? Co
   Co5        1.0     0.317497     0.687283     0.944036    Uiso  ? Co
   Co6        1.0     0.680851     0.312425     0.055295    Uiso  ? Co
   Co7        1.0     0.035000     0.020532     0.278011    Uiso  ? Co
   Co8        1.0     0.298921     0.646547     0.389281    Uiso  ? Co
   Co9        1.0     0.656195     0.344612     0.612458    Uiso  ? Co
   Co10       1.0     0.680207     0.310689     0.944394    Uiso  ? Co
   Co11       1.0     0.689146     0.344997     0.720742    Uiso  ? Co
   Co12       1.0     0.297235     0.645767     0.278458    Uiso  ? Co
   Co13       1.0     0.317984     0.688184     0.054852    Uiso  ? Co
   Co14       1.0     0.010387    -0.010213     0.612597    Uiso  ? Co
   Co15       1.0     0.037755     0.022744     0.388930    Uiso  ? Co
   Co16       1.0     0.498997    -0.000680     0.999644    Uiso  ? Co
   Co17       1.0     0.998935     0.499312     0.999624    Uiso  ? Co
   Co18       1.0     0.167258     0.333962     0.333647    Uiso  ? Co
   Co19       1.0     0.167313     0.833964     0.333668    Uiso  ? Co
   Co20       1.0     0.834126     0.667001     0.666621    Uiso  ? Co
   Co21       1.0     0.834034     0.166595     0.665401    Uiso  ? Co
   Co22       1.0     0.334295     0.167103     0.667967    Uiso  ? Co
   Co23       1.0     0.995372     0.497815     0.890495    Uiso  ? Co
   Co24       1.0     0.501391     0.003909     0.889920    Uiso  ? Co
   Co25       1.0     0.499380     0.500147     0.892557    Uiso  ? Co
   Co26       1.0     0.334300     0.166786     0.773330    Uiso  ? Co
   Co27       1.0     0.832211     0.663554     0.774964    Uiso  ? Co
   Co28       1.0     0.831954     0.168703     0.774691    Uiso  ? Co
   Co29       1.0     0.665660     0.833812     0.226582    Uiso  ? Co
   Co30       1.0     0.168109     0.337761     0.223993    Uiso  ? Co
   Co31       1.0     0.168641     0.831715     0.224496    Uiso  ? Co
   Co32       1.0     0.003311     0.501300     0.108787    Uiso  ? Co
   Co33       1.0     0.496744     0.995023     0.109353    Uiso  ? Co
   Co34       1.0     0.498538     0.499333     0.106698    Uiso  ? Co
   Co35       1.0     0.330380     0.164092     0.558735    Uiso  ? Co
   Co36       1.0     0.836161     0.669998     0.558453    Uiso  ? Co
   Co37       1.0     0.834599     0.166446     0.559970    Uiso  ? Co
   Co38       1.0     0.667559     0.833435     0.440742    Uiso  ? Co
   Co39       1.0     0.165684     0.329510     0.443418    Uiso  ? Co
   Co40       1.0     0.165459     0.835304     0.442857    Uiso  ? Co
   Zn1        1.0     0.667247     0.833934     0.333672    Uiso  ? Zn
   Zn2        1.0     0.499067     0.499452     0.999654    Uiso  ? Zn
