
#======================================================================
# CRYSTAL DATA
#----------------------------------------------------------------------
data_VESTA_phase_1

_chemical_name_common                  'Sm12 Co42                             '
_cell_length_a                         5.083928
_cell_length_b                         5.032385
_cell_length_c                         36.602573
_cell_angle_alpha                      90.025597
_cell_angle_beta                       89.998085
_cell_angle_gamma                      120.351845
_cell_volume                           808.099404
_space_group_name_H-M_alt              'P 1'
_space_group_IT_number                 1

loop_
_space_group_symop_operation_xyz
   'x, y, z'

loop_
   _atom_site_label
   _atom_site_occupancy
   _atom_site_fract_x
   _atom_site_fract_y
   _atom_site_fract_z
   _atom_site_adp_type
   _atom_site_U_iso_or_equiv
   _atom_site_type_symbol
   Sm1        1.0     0.000026     0.999696     0.948379    Uiso  ? Sm
   Sm2        1.0     0.333616     0.666974     0.724218    Uiso  ? Sm
   Sm3        1.0     0.666074     0.332928     0.279526    Uiso  ? Sm
   Sm4        1.0     0.999836     0.000127     0.053829    Uiso  ? Sm
   Sm5        1.0     0.333563     0.666690     0.609078    Uiso  ? Sm
   Sm6        1.0     0.666921     0.333634     0.384968    Uiso  ? Sm
   Sm7        1.0     0.000367     0.998990     0.853610    Uiso  ? Sm
   Sm8        1.0     0.334801     0.666448     0.817819    Uiso  ? Sm
   Sm9        1.0     0.663769     0.332843     0.184818    Uiso  ? Sm
   Sm10       1.0     0.997460     0.000064     0.148551    Uiso  ? Sm
   Sm11       1.0     0.335275     0.667313     0.515476    Uiso  ? Sm
   Sm12       1.0     0.668434     0.334796     0.479688    Uiso  ? Sm
   Co1        1.0     0.667434     0.332631     0.835769    Uiso  ? Co
   Co2        1.0     0.330592     0.666563     0.166693    Uiso  ? Co
   Co3        1.0     0.001744     0.001069     0.497514    Uiso  ? Co
   Co4        1.0    -0.000867    -0.002024     0.725435    Uiso  ? Co
   Co5        1.0     0.318322     0.685048     0.945919    Uiso  ? Co
   Co6        1.0     0.681862     0.315009     0.056358    Uiso  ? Co
   Co7        1.0     0.032398     0.017550     0.277029    Uiso  ? Co
   Co8        1.0     0.300606     0.648590     0.387434    Uiso  ? Co
   Co9        1.0     0.667969     0.335445     0.607831    Uiso  ? Co
   Co10       1.0     0.681389     0.314365     0.946470    Uiso  ? Co
   Co11       1.0     0.668028     0.336046     0.725069    Uiso  ? Co
   Co12       1.0     0.300075     0.648040     0.277524    Uiso  ? Co
   Co13       1.0     0.318172     0.685251     0.055863    Uiso  ? Co
   Co14       1.0    -0.001037    -0.002338     0.608206    Uiso  ? Co
   Co15       1.0     0.032890     0.018566     0.386897    Uiso  ? Co
   Co16       1.0     0.499902    -0.000119     0.001166    Uiso  ? Co
   Co17       1.0    -0.000054     0.499955     0.001138    Uiso  ? Co
   Co18       1.0     0.166401     0.333256     0.332208    Uiso  ? Co
   Co19       1.0     0.166422     0.833295     0.332240    Uiso  ? Co
   Co20       1.0     0.995689     0.498497     0.892897    Uiso  ? Co
   Co21       1.0     0.501557     0.004484     0.892580    Uiso  ? Co
   Co22       1.0     0.500450     0.499369     0.894907    Uiso  ? Co
   Co23       1.0     0.337034     0.168054     0.777357    Uiso  ? Co
   Co24       1.0     0.832505     0.663145     0.777655    Uiso  ? Co
   Co25       1.0     0.831691     0.168844     0.777364    Uiso  ? Co
   Co26       1.0     0.665780     0.833125     0.225925    Uiso  ? Co
   Co27       1.0     0.168049     0.337170     0.223668    Uiso  ? Co
   Co28       1.0     0.168770     0.831044     0.223984    Uiso  ? Co
   Co29       1.0     0.004178     0.501714     0.109443    Uiso  ? Co
   Co30       1.0     0.497399     0.995564     0.109739    Uiso  ? Co
   Co31       1.0     0.499242     0.499512     0.107407    Uiso  ? Co
   Co32       1.0     0.329933     0.164784     0.555896    Uiso  ? Co
   Co33       1.0     0.835971     0.670334     0.555629    Uiso  ? Co
   Co34       1.0     0.836115     0.165622     0.555907    Uiso  ? Co
   Co35       1.0     0.667795     0.834135     0.438438    Uiso  ? Co
   Co36       1.0     0.164061     0.329125     0.440743    Uiso  ? Co
   Co37       1.0     0.164362     0.835342     0.440404    Uiso  ? Co
   Zn1        1.0     0.666585     0.833468     0.332237    Uiso  ? Zn
   Zn2        1.0     0.499947     0.499852     0.001138    Uiso  ? Zn
   Zn3        1.0     0.833554     0.666767     0.666646    Uiso  ? Zn
   Zn4        1.0     0.833519     0.166695     0.666658    Uiso  ? Zn
   Zn5        1.0     0.333424     0.166654     0.666657    Uiso  ? Zn
