
#======================================================================
# CRYSTAL DATA
#----------------------------------------------------------------------
data_VESTA_phase_1

_chemical_name_common                  'Sm12 Co42                             '
_cell_length_a                         5.054078
_cell_length_b                         5.056075
_cell_length_c                         36.699230
_cell_angle_alpha                      90.030067
_cell_angle_beta                       89.956894
_cell_angle_gamma                      120.156601
_cell_volume                           810.877766
_space_group_name_H-M_alt              'P 1'
_space_group_IT_number                 1

loop_
_space_group_symop_operation_xyz
   'x, y, z'

loop_
   _atom_site_label
   _atom_site_occupancy
   _atom_site_fract_x
   _atom_site_fract_y
   _atom_site_fract_z
   _atom_site_adp_type
   _atom_site_U_iso_or_equiv
   _atom_site_type_symbol
   Sm1        1.0     0.000158     0.000067     0.948077    Uiso  ? Sm
   Sm2        1.0     0.333365     0.666761     0.724537    Uiso  ? Sm
   Sm3        1.0     0.666696     0.333484     0.277354    Uiso  ? Sm
   Sm4        1.0     0.999535     0.000031     0.053243    Uiso  ? Sm
   Sm5        1.0     0.333618     0.666753     0.609661    Uiso  ? Sm
   Sm6        1.0     0.667001     0.332777     0.387191    Uiso  ? Sm
   Sm7        1.0     0.000530    -0.000637     0.853599    Uiso  ? Sm
   Sm8        1.0     0.334529     0.665922     0.817877    Uiso  ? Sm
   Sm9        1.0     0.664822     0.334834     0.183605    Uiso  ? Sm
   Sm10       1.0     0.998610     0.001316     0.147692    Uiso  ? Sm
   Sm11       1.0     0.333580     0.666093     0.516354    Uiso  ? Sm
   Sm12       1.0     0.666710     0.333061     0.480915    Uiso  ? Sm
   Co1        1.0     0.667521     0.332320     0.835810    Uiso  ? Co
   Co2        1.0     0.331932     0.668370     0.165595    Uiso  ? Co
   Co3        1.0     0.000045    -0.000315     0.498601    Uiso  ? Co
   Co4        1.0     0.000921     0.000512     0.725765    Uiso  ? Co
   Co5        1.0     0.316233     0.683528     0.945597    Uiso  ? Co
   Co6        1.0     0.683445     0.316608     0.055627    Uiso  ? Co
   Co7        1.0     0.010694     0.988693     0.275625    Uiso  ? Co
   Co8        1.0     0.323750     0.676980     0.388880    Uiso  ? Co
   Co9        1.0     0.666349     0.333006     0.608476    Uiso  ? Co
   Co10       1.0     0.684466     0.316865     0.946163    Uiso  ? Co
   Co11       1.0     0.665477     0.332718     0.725403    Uiso  ? Co
   Co12       1.0     0.322727     0.678680     0.276096    Uiso  ? Co
   Co13       1.0     0.315615     0.683284     0.055178    Uiso  ? Co
   Co14       1.0     0.000967     0.000511     0.608825    Uiso  ? Co
   Co15       1.0     0.010919     0.987816     0.388279    Uiso  ? Co
   Co16       1.0     0.499644    -0.000081     0.000648    Uiso  ? Co
   Co17       1.0     0.999999     0.500258     0.000652    Uiso  ? Co
   Co18       1.0     0.166600     0.832961     0.332284    Uiso  ? Co
   Co19       1.0     0.995328     0.498514     0.892552    Uiso  ? Co
   Co20       1.0     0.501307     0.004919     0.892609    Uiso  ? Co
   Co21       1.0     0.500402     0.499479     0.894779    Uiso  ? Co
   Co22       1.0     0.336989     0.168055     0.777703    Uiso  ? Co
   Co23       1.0     0.832410     0.663078     0.777614    Uiso  ? Co
   Co24       1.0     0.831593     0.169453     0.777601    Uiso  ? Co
   Co25       1.0     0.663913     0.832553     0.223991    Uiso  ? Co
   Co26       1.0     0.167192     0.336096     0.224039    Uiso  ? Co
   Co27       1.0     0.168811     0.830385     0.222512    Uiso  ? Co
   Co28       1.0     0.004327     0.501720     0.108752    Uiso  ? Co
   Co29       1.0     0.498085     0.995551     0.108714    Uiso  ? Co
   Co30       1.0     0.499530     0.500358     0.106575    Uiso  ? Co
   Co31       1.0     0.329764     0.164766     0.556582    Uiso  ? Co
   Co32       1.0     0.835236     0.670476     0.556654    Uiso  ? Co
   Co33       1.0     0.835368     0.164302     0.556664    Uiso  ? Co
   Co34       1.0     0.670384     0.835341     0.440451    Uiso  ? Co
   Co35       1.0     0.164110     0.329316     0.440388    Uiso  ? Co
   Co36       1.0     0.164786     0.835334     0.441830    Uiso  ? Co
   Zn1        1.0     0.666551     0.833082     0.332219    Uiso  ? Zn
   Zn2        1.0     0.499832     0.500075     0.000623    Uiso  ? Zn
   Zn3        1.0     0.833708     0.666974     0.667112    Uiso  ? Zn
   Zn4        1.0     0.833684     0.166933     0.667115    Uiso  ? Zn
   Zn5        1.0     0.333599     0.166893     0.667096    Uiso  ? Zn
   Zn6        1.0     0.166639     0.333172     0.332216    Uiso  ? Zn
