
#======================================================================
# CRYSTAL DATA
#----------------------------------------------------------------------
data_VESTA_phase_1

_chemical_name_common                  'Sm12 Co42                             '
_cell_length_a                         5.074338
_cell_length_b                         5.074307
_cell_length_c                         36.824108
_cell_angle_alpha                      90.016907
_cell_angle_beta                       89.983093
_cell_angle_gamma                      120.652794
_cell_volume                           815.688834
_space_group_name_H-M_alt              'P 1'
_space_group_IT_number                 1

loop_
_space_group_symop_operation_xyz
   'x, y, z'

loop_
   _atom_site_label
   _atom_site_occupancy
   _atom_site_fract_x
   _atom_site_fract_y
   _atom_site_fract_z
   _atom_site_adp_type
   _atom_site_U_iso_or_equiv
   _atom_site_type_symbol
   Sm1        1.0     0.000173    -0.000171     0.947586    Uiso  ? Sm
   Sm2        1.0     0.333229     0.666796     0.724840    Uiso  ? Sm
   Sm3        1.0     0.666772     0.333196     0.275146    Uiso  ? Sm
   Sm4        1.0    -0.000186     0.000173     0.052422    Uiso  ? Sm
   Sm5        1.0     0.333404     0.666627     0.610510    Uiso  ? Sm
   Sm6        1.0     0.666615     0.333366     0.389495    Uiso  ? Sm
   Sm7        1.0     0.000772     0.999246     0.853433    Uiso  ? Sm
   Sm8        1.0     0.333903     0.666104     0.817876    Uiso  ? Sm
   Sm9        1.0     0.666082     0.333917     0.182129    Uiso  ? Sm
   Sm10       1.0     0.999205     0.000782     0.146581    Uiso  ? Sm
   Sm11       1.0     0.333616     0.666390     0.517497    Uiso  ? Sm
   Sm12       1.0     0.666418     0.333600     0.482487    Uiso  ? Sm
   Co1        1.0     0.667241     0.332770     0.835736    Uiso  ? Co
   Co2        1.0     0.332741     0.667244     0.164272    Uiso  ? Co
   Co3        1.0     0.000026    -0.000006     0.499993    Uiso  ? Co
   Co4        1.0     0.001072    -0.001024     0.726153    Uiso  ? Co
   Co5        1.0     0.315668     0.684331     0.945145    Uiso  ? Co
   Co6        1.0     0.684307     0.315671     0.054870    Uiso  ? Co
   Co7        1.0    -0.001024     0.001038     0.273846    Uiso  ? Co
   Co8        1.0     0.334353     0.665628     0.390714    Uiso  ? Co
   Co9        1.0     0.665675     0.334387     0.609275    Uiso  ? Co
   Co10       1.0     0.684484     0.315523     0.945680    Uiso  ? Co
   Co11       1.0     0.665341     0.334655     0.725747    Uiso  ? Co
   Co12       1.0     0.334642     0.665293     0.274248    Uiso  ? Co
   Co13       1.0     0.315518     0.684474     0.054329    Uiso  ? Co
   Co14       1.0     0.001159     0.998866     0.609733    Uiso  ? Co
   Co15       1.0     0.998853     0.001111     0.390259    Uiso  ? Co
   Co16       1.0     0.499981     0.000016     0.000008    Uiso  ? Co
   Co17       1.0    -0.000020     0.500016     0.000008    Uiso  ? Co
   Co18       1.0     0.995399     0.498392     0.892225    Uiso  ? Co
   Co19       1.0     0.501621     0.004611     0.892226    Uiso  ? Co
   Co20       1.0     0.500354     0.499661     0.894647    Uiso  ? Co
   Co21       1.0     0.336917     0.168120     0.777886    Uiso  ? Co
   Co22       1.0     0.831889     0.663084     0.777884    Uiso  ? Co
   Co23       1.0     0.831519     0.168480     0.777599    Uiso  ? Co
   Co24       1.0     0.663090     0.831898     0.222116    Uiso  ? Co
   Co25       1.0     0.168093     0.336893     0.222113    Uiso  ? Co
   Co26       1.0     0.168477     0.831522     0.222399    Uiso  ? Co
   Co27       1.0     0.004629     0.501633     0.107784    Uiso  ? Co
   Co28       1.0     0.498347     0.995351     0.107785    Uiso  ? Co
   Co29       1.0     0.499628     0.500352     0.105359    Uiso  ? Co
   Co30       1.0     0.329386     0.164594     0.557620    Uiso  ? Co
   Co31       1.0     0.835431     0.670646     0.557618    Uiso  ? Co
   Co32       1.0     0.835224     0.164749     0.557909    Uiso  ? Co
   Co33       1.0     0.670610     0.835394     0.442370    Uiso  ? Co
   Co34       1.0     0.164603     0.329386     0.442370    Uiso  ? Co
   Co35       1.0     0.164755     0.835254     0.442085    Uiso  ? Co
   Zn1        1.0     0.666736     0.833336     0.332291    Uiso  ? Zn
   Zn2        1.0     0.499983     0.500014     0.000005    Uiso  ? Zn
   Zn3        1.0     0.833380     0.666761     0.667702    Uiso  ? Zn
   Zn4        1.0     0.833356     0.166683     0.667702    Uiso  ? Zn
   Zn5        1.0     0.333271     0.166651     0.667701    Uiso  ? Zn
   Zn6        1.0     0.166628     0.333218     0.332293    Uiso  ? Zn
   Zn7        1.0     0.166653     0.833297     0.332290    Uiso  ? Zn
