
#======================================================================
# CRYSTAL DATA
#----------------------------------------------------------------------
data_VESTA_phase_1

_chemical_name_common                  'Sm12 Co42                             '
_cell_length_a                         5.046308
_cell_length_b                         4.963601
_cell_length_c                         36.380596
_cell_angle_alpha                      90.005463
_cell_angle_beta                       90.046577
_cell_angle_gamma                      119.431145
_cell_volume                           793.655066
_space_group_name_H-M_alt              'P 1'
_space_group_IT_number                 1

loop_
_space_group_symop_operation_xyz
   'x, y, z'

loop_
   _atom_site_label
   _atom_site_occupancy
   _atom_site_fract_x
   _atom_site_fract_y
   _atom_site_fract_z
   _atom_site_adp_type
   _atom_site_U_iso_or_equiv
   _atom_site_type_symbol
   Sm1        1.0     0.000705    -0.000072     0.948247    Uiso  ? Sm
   Sm2        1.0     0.333706     0.666100     0.718554    Uiso  ? Sm
   Sm3        1.0     0.665501     0.333467     0.279660    Uiso  ? Sm
   Sm4        1.0     0.001930     0.001332     0.050489    Uiso  ? Sm
   Sm5        1.0     0.331722     0.665640     0.616252    Uiso  ? Sm
   Sm6        1.0     0.666599     0.334046     0.386832    Uiso  ? Sm
   Sm7        1.0     0.998419     0.997863     0.851906    Uiso  ? Sm
   Sm8        1.0     0.333011     0.665123     0.814956    Uiso  ? Sm
   Sm9        1.0     0.664070     0.332440     0.184011    Uiso  ? Sm
   Sm10       1.0    -0.000894    -0.000086     0.147045    Uiso  ? Sm
   Sm11       1.0     0.334185     0.667648     0.519587    Uiso  ? Sm
   Sm12       1.0     0.668484     0.334792     0.482517    Uiso  ? Sm
   Co1        1.0     0.665501     0.331490     0.833410    Uiso  ? Co
   Co2        1.0     0.330898     0.665750     0.165668    Uiso  ? Co
   Co3        1.0     0.002147     0.001575     0.500942    Uiso  ? Co
   Co4        1.0     0.988222     0.995028     0.721761    Uiso  ? Co
   Co5        1.0     0.361064     0.680044     0.944937    Uiso  ? Co
   Co6        1.0     0.673752     0.338132     0.053527    Uiso  ? Co
   Co7        1.0     0.036912     0.019282     0.277381    Uiso  ? Co
   Co8        1.0     0.295311     0.648653     0.389134    Uiso  ? Co
   Co9        1.0     0.674172     0.336342     0.613003    Uiso  ? Co
   Co10       1.0     0.641872     0.320490     0.945199    Uiso  ? Co
   Co11       1.0     0.678636     0.336927     0.721675    Uiso  ? Co
   Co12       1.0     0.294188     0.647670     0.277787    Uiso  ? Co
   Co13       1.0     0.330805     0.664845     0.053546    Uiso  ? Co
   Co14       1.0     0.989184     0.994879     0.613174    Uiso  ? Co
   Co15       1.0     0.037954     0.019466     0.388743    Uiso  ? Co
   Co16       1.0     0.500205    -0.000227    -0.000088    Uiso  ? Co
   Co17       1.0     0.500207     0.500433    -0.000154    Uiso  ? Co
   Co18       1.0     1.000237     0.500161     0.998037    Uiso  ? Co
   Co19       1.0     0.166049     0.333696     0.333272    Uiso  ? Co
   Co20       1.0     0.166020     0.833700     0.333243    Uiso  ? Co
   Co21       1.0     0.832849     0.665754     0.667422    Uiso  ? Co
   Co22       1.0     0.832878     0.165978     0.667331    Uiso  ? Co
   Co23       1.0     0.332802     0.165841     0.667531    Uiso  ? Co
   Co24       1.0     1.000496     0.499026     0.892974    Uiso  ? Co
   Co25       1.0     0.502435     1.002695     0.891005    Uiso  ? Co
   Co26       1.0     0.502180     0.497728     0.890991    Uiso  ? Co
   Co27       1.0     0.334824     0.166242     0.774420    Uiso  ? Co
   Co28       1.0     0.831694     0.663709     0.775523    Uiso  ? Co
   Co29       1.0     0.831250     0.166087     0.775698    Uiso  ? Co
   Co30       1.0     0.666801     0.833963     0.225945    Uiso  ? Co
   Co31       1.0     0.168856     0.337961     0.223329    Uiso  ? Co
   Co32       1.0     0.168830     0.831967     0.223332    Uiso  ? Co
   Co33       1.0     0.004501     0.502729     0.107113    Uiso  ? Co
   Co34       1.0     0.499815     0.999202     0.107166    Uiso  ? Co
   Co35       1.0     0.499777     0.501642     0.107250    Uiso  ? Co
   Co36       1.0     0.330471     0.165496     0.560167    Uiso  ? Co
   Co37       1.0     0.835060     0.669125     0.559200    Uiso  ? Co
   Co38       1.0     0.835348     0.166308     0.559132    Uiso  ? Co
   Co39       1.0     0.665579     0.833422     0.440569    Uiso  ? Co
   Co40       1.0     0.163354     0.329519     0.443193    Uiso  ? Co
   Co41       1.0     0.163381     0.835233     0.443228    Uiso  ? Co
   Zn1        1.0     0.666048     0.833741     0.333232    Uiso  ? Zn
