
#======================================================================
# CRYSTAL DATA
#----------------------------------------------------------------------
data_VESTA_phase_1

_chemical_name_common                  'Sm12 Co42                             '
_cell_length_a                         5.014375
_cell_length_b                         5.014375
_cell_length_c                         36.384537
_cell_angle_alpha                      90.000000
_cell_angle_beta                       90.000000
_cell_angle_gamma                      120.000000
_cell_volume                           792.284459
_space_group_name_H-M_alt              'P 1'
_space_group_IT_number                 1

loop_
_space_group_symop_operation_xyz
   'x, y, z'

loop_
   _atom_site_label
   _atom_site_occupancy
   _atom_site_fract_x
   _atom_site_fract_y
   _atom_site_fract_z
   _atom_site_adp_type
   _atom_site_U_iso_or_equiv
   _atom_site_type_symbol
   Sm1        1.0     -0.000000     0.000000     0.948630    Uiso  ? Sm
   Sm2        1.0     0.333333     0.666667     0.718162    Uiso  ? Sm
   Sm3        1.0     0.666667     0.333333     0.281309    Uiso  ? Sm
   Sm4        1.0     -0.000000     0.000000     0.051094    Uiso  ? Sm
   Sm5        1.0     0.333333     0.666667     0.615659    Uiso  ? Sm
   Sm6        1.0     0.666667     0.333333     0.383392    Uiso  ? Sm
   Sm7        1.0     -0.000000     0.000000     0.851995    Uiso  ? Sm
   Sm8        1.0     0.333333     0.666667     0.814847    Uiso  ? Sm
   Sm9        1.0     0.666667     0.333333     0.184907    Uiso  ? Sm
   Sm10       1.0     -0.000000     0.000000     0.147736    Uiso  ? Sm
   Sm11       1.0     0.333333     0.666667     0.519168    Uiso  ? Sm
   Sm12       1.0     0.666667     0.333333     0.481554    Uiso  ? Sm
   Co1        1.0     0.666667     0.333333     0.833440    Uiso  ? Co
   Co2        1.0     0.333333     0.666667     0.166397    Uiso  ? Co
   Co3        1.0     -0.000000     0.000000     0.500160    Uiso  ? Co
   Co4        1.0     -0.000000     0.000000     0.721314    Uiso  ? Co
   Co5        1.0     0.333333     0.666667     0.945486    Uiso  ? Co
   Co6        1.0     0.666667     0.333333     0.054338    Uiso  ? Co
   Co7        1.0     -0.000000     0.000000     0.279040    Uiso  ? Co
   Co8        1.0     0.666667     0.333333     0.612555    Uiso  ? Co
   Co9        1.0     0.666667     0.333333     0.945597    Uiso  ? Co
   Co10       1.0     0.666667     0.333333     0.721235    Uiso  ? Co
   Co11       1.0     0.333333     0.666667     0.277850    Uiso  ? Co
   Co12       1.0     0.333333     0.666667     0.054275    Uiso  ? Co
   Co13       1.0     -0.000000     0.000000     0.612588    Uiso  ? Co
   Co14       1.0     -0.000000     0.000000     0.388164    Uiso  ? Co
   Co15       1.0     0.499985    -0.000030    -0.000104    Uiso  ? Co
   Co16       1.0     0.499985     0.500015    -0.000104    Uiso  ? Co
   Co17       1.0     0.000030     0.500015    -0.000104    Uiso  ? Co
   Co18       1.0     0.165817     0.331634     0.332288    Uiso  ? Co
   Co19       1.0     0.165817     0.834183     0.332288    Uiso  ? Co
   Co20       1.0     0.668366     0.834183     0.332288    Uiso  ? Co
   Co21       1.0     0.833360     0.666720     0.666937    Uiso  ? Co
   Co22       1.0     0.833360     0.166640     0.666937    Uiso  ? Co
   Co23       1.0     0.333280     0.166640     0.666937    Uiso  ? Co
   Co24       1.0     0.997909     0.498955     0.891886    Uiso  ? Co
   Co25       1.0     0.501045     0.002091     0.891886    Uiso  ? Co
   Co26       1.0     0.501045     0.498955     0.891886    Uiso  ? Co
   Co27       1.0     0.335346     0.167673     0.774945    Uiso  ? Co
   Co28       1.0     0.832327     0.664654     0.774945    Uiso  ? Co
   Co29       1.0     0.832327     0.167673     0.774945    Uiso  ? Co
   Co30       1.0     0.666366     0.833183     0.224640    Uiso  ? Co
   Co31       1.0     0.166817     0.333634     0.224640    Uiso  ? Co
   Co32       1.0     0.166817     0.833183     0.224640    Uiso  ? Co
   Co33       1.0     0.001975     0.500988     0.107892    Uiso  ? Co
   Co34       1.0     0.499012     0.998025     0.107892    Uiso  ? Co
   Co35       1.0     0.499012     0.500988     0.107892    Uiso  ? Co
   Co36       1.0     0.331634     0.165817     0.558969    Uiso  ? Co
   Co37       1.0     0.834183     0.668366     0.558969    Uiso  ? Co
   Co38       1.0     0.834183     0.165817     0.558969    Uiso  ? Co
   Co39       1.0     0.670795     0.835398     0.442877    Uiso  ? Co
   Co40       1.0     0.164602     0.329205     0.442877    Uiso  ? Co
   Co41       1.0     0.164602     0.835398     0.442877    Uiso  ? Co
   Zn1        1.0     0.333333     0.666667     0.388114    Uiso  ? Zn
