
#======================================================================
# CRYSTAL DATA
#----------------------------------------------------------------------
data_VESTA_phase_1

_chemical_name_common                  'Sm8 Co28                              '
_cell_length_a                         5.020861
_cell_length_b                         5.020861
_cell_length_c                         24.335785
_cell_angle_alpha                      90.000000
_cell_angle_beta                       90.000000
_cell_angle_gamma                      120.000000
_cell_volume                           531.290943
_space_group_name_H-M_alt              'P 1'
_space_group_IT_number                 1

loop_
_space_group_symop_operation_xyz
   'x, y, z'

loop_
   _atom_site_label
   _atom_site_occupancy
   _atom_site_fract_x
   _atom_site_fract_y
   _atom_site_fract_z
   _atom_site_adp_type
   _atom_site_U_iso_or_equiv
   _atom_site_type_symbol
   Sm1        1.0     0.666667     0.333333     0.532080    Uiso  ? Sm
   Sm2        1.0     0.333333     0.666667     0.027734    Uiso  ? Sm
   Sm3        1.0     0.333333     0.666667     0.467920    Uiso  ? Sm
   Sm4        1.0     0.666667     0.333333     0.972266    Uiso  ? Sm
   Sm5        1.0     0.666667     0.333333     0.675344    Uiso  ? Sm
   Sm6        1.0     0.333333     0.666667     0.172139    Uiso  ? Sm
   Sm7        1.0     0.333333     0.666667     0.324656    Uiso  ? Sm
   Sm8        1.0     0.666667     0.333333     0.827861    Uiso  ? Sm
   Co1        1.0     0.000000     0.000000     0.000000    Uiso  ? Co
   Co2        1.0     0.000000     0.000000     0.670363    Uiso  ? Co
   Co3        1.0     0.000000     0.000000     0.167491    Uiso  ? Co
   Co4        1.0     0.000000     0.000000     0.329637    Uiso  ? Co
   Co5        1.0     0.000000     0.000000     0.832509    Uiso  ? Co
   Co6        1.0     0.666667     0.333333     0.330098    Uiso  ? Co
   Co7        1.0     0.333333     0.666667     0.832636    Uiso  ? Co
   Co8        1.0     0.333333     0.666667     0.669902    Uiso  ? Co
   Co9        1.0     0.666667     0.333333     0.167364    Uiso  ? Co
   Co10       1.0     0.666892     0.833446     0.751391    Uiso  ? Co
   Co11       1.0     0.833446     0.666892     0.248609    Uiso  ? Co
   Co12       1.0     0.833446     0.166554     0.248609    Uiso  ? Co
   Co13       1.0     0.166554     0.833446     0.751391    Uiso  ? Co
   Co14       1.0     0.166554     0.333108     0.751391    Uiso  ? Co
   Co15       1.0     0.333108     0.166554     0.248609    Uiso  ? Co
   Co16       1.0     0.665779     0.832890     0.590228    Uiso  ? Co
   Co17       1.0     0.167110     0.832890     0.590228    Uiso  ? Co
   Co18       1.0     0.167110     0.334221     0.590228    Uiso  ? Co
   Co19       1.0     0.834377     0.668753     0.087295    Uiso  ? Co
   Co20       1.0     0.834377     0.165623     0.087295    Uiso  ? Co
   Co21       1.0     0.331247     0.165623     0.087295    Uiso  ? Co
   Co22       1.0     0.334221     0.167110     0.409772    Uiso  ? Co
   Co23       1.0     0.832890     0.665779     0.409772    Uiso  ? Co
   Co24       1.0     0.832890     0.167110     0.409772    Uiso  ? Co
   Co25       1.0     0.165623     0.834377     0.912705    Uiso  ? Co
   Co26       1.0     0.668753     0.834377     0.912705    Uiso  ? Co
   Co27       1.0     0.165623     0.331247     0.912705    Uiso  ? Co
   Zn1        1.0     0.000000     0.000000     0.500000    Uiso  ? Zn
