
#======================================================================
# CRYSTAL DATA
#----------------------------------------------------------------------
data_VESTA_phase_1

_chemical_name_common                  'Sm8 Co28                              '
_cell_length_a                         4.957908
_cell_length_b                         5.057478
_cell_length_c                         24.275307
_cell_angle_alpha                      90.000000
_cell_angle_beta                       90.000000
_cell_angle_gamma                      119.350845
_cell_volume                           530.556502
_space_group_name_H-M_alt              'P 1'
_space_group_IT_number                 1

loop_
_space_group_symop_operation_xyz
   'x, y, z'

loop_
   _atom_site_label
   _atom_site_occupancy
   _atom_site_fract_x
   _atom_site_fract_y
   _atom_site_fract_z
   _atom_site_adp_type
   _atom_site_U_iso_or_equiv
   _atom_site_type_symbol
   Sm1        1.0     0.666830     0.333661     0.528495    Uiso  ? Sm
   Sm2        1.0     0.334103     0.668207     0.026870    Uiso  ? Sm
   Sm3        1.0     0.334103     0.668207     0.473130    Uiso  ? Sm
   Sm4        1.0     0.666830     0.333661     0.971505    Uiso  ? Sm
   Sm5        1.0     0.666175     0.332351     0.673291    Uiso  ? Sm
   Sm6        1.0     0.334093     0.668186     0.169990    Uiso  ? Sm
   Sm7        1.0     0.334093     0.668186     0.330010    Uiso  ? Sm
   Sm8        1.0     0.666175     0.332351     0.826709    Uiso  ? Sm
   Co1        1.0     0.000889     0.001779     0.500688    Uiso  ? Co
   Co2        1.0     0.000889     0.001779     0.999312    Uiso  ? Co
   Co3        1.0     0.993961     0.987922     0.668483    Uiso  ? Co
   Co4        1.0     0.019867     0.039733     0.167034    Uiso  ? Co
   Co5        1.0     0.019867     0.039733     0.332966    Uiso  ? Co
   Co6        1.0     0.993961     0.987922     0.831517    Uiso  ? Co
   Co7        1.0     0.648262     0.296524     0.333456    Uiso  ? Co
   Co8        1.0     0.338188     0.676376     0.831494    Uiso  ? Co
   Co9        1.0     0.338188     0.676376     0.668506    Uiso  ? Co
   Co10       1.0     0.648262     0.296524     0.166544    Uiso  ? Co
   Co11       1.0     0.666601     0.832959     0.750000    Uiso  ? Co
   Co12       1.0     0.834142     0.168194     0.250000    Uiso  ? Co
   Co13       1.0     0.166358     0.832959     0.750000    Uiso  ? Co
   Co14       1.0     0.165471     0.330942     0.750000    Uiso  ? Co
   Co15       1.0     0.334052     0.168194     0.250000    Uiso  ? Co
   Co16       1.0     0.668708     0.834738     0.587614    Uiso  ? Co
   Co17       1.0     0.166030     0.834738     0.587614    Uiso  ? Co
   Co18       1.0     0.165267     0.330534     0.589439    Uiso  ? Co
   Co19       1.0     0.833460     0.666920     0.089673    Uiso  ? Co
   Co20       1.0     0.834497     0.163883     0.085527    Uiso  ? Co
   Co21       1.0     0.329385     0.163883     0.085527    Uiso  ? Co
   Co22       1.0     0.329385     0.163883     0.414473    Uiso  ? Co
   Co23       1.0     0.833460     0.666920     0.410327    Uiso  ? Co
   Co24       1.0     0.834497     0.163883     0.414473    Uiso  ? Co
   Co25       1.0     0.166030     0.834738     0.912386    Uiso  ? Co
   Co26       1.0     0.668708     0.834738     0.912386    Uiso  ? Co
   Co27       1.0     0.165267     0.330534     0.910561    Uiso  ? Co
   Zn1        1.0     0.833944     0.667888     0.250000    Uiso  ? Zn
