
#======================================================================
# CRYSTAL DATA
#----------------------------------------------------------------------
data_VESTA_phase_1

_chemical_name_common                  'Sm8 Co28                              '
_cell_length_a                         5.020803
_cell_length_b                         5.020803
_cell_length_c                         24.258907
_cell_angle_alpha                      90.000000
_cell_angle_beta                       90.000000
_cell_angle_gamma                      120.000000
_cell_volume                           529.600304
_space_group_name_H-M_alt              'P 1'
_space_group_IT_number                 1

loop_
_space_group_symop_operation_xyz
   'x, y, z'

loop_
   _atom_site_label
   _atom_site_occupancy
   _atom_site_fract_x
   _atom_site_fract_y
   _atom_site_fract_z
   _atom_site_adp_type
   _atom_site_U_iso_or_equiv
   _atom_site_type_symbol
   Sm1        1.0     0.666667     0.333333     0.528250    Uiso  ? Sm
   Sm2        1.0     0.333333     0.666667     0.027539    Uiso  ? Sm
   Sm3        1.0     0.333333     0.666667     0.472078    Uiso  ? Sm
   Sm4        1.0     0.666667     0.333333     0.971694    Uiso  ? Sm
   Sm5        1.0     0.666667     0.333333     0.673211    Uiso  ? Sm
   Sm6        1.0     0.333333     0.666667     0.172261    Uiso  ? Sm
   Sm7        1.0     0.333333     0.666667     0.325409    Uiso  ? Sm
   Sm8        1.0     0.666667     0.333333     0.826746    Uiso  ? Sm
   Co1        1.0     -0.000000     -0.000000     0.501569    Uiso  ? Co
   Co2        1.0     -0.000000     -0.000000     0.999926    Uiso  ? Co
   Co3        1.0     -0.000000     -0.000000     0.668266    Uiso  ? Co
   Co4        1.0     -0.000000     -0.000000     0.166190    Uiso  ? Co
   Co5        1.0     -0.000000     -0.000000     0.831888    Uiso  ? Co
   Co6        1.0     0.666667     0.333333     0.332176    Uiso  ? Co
   Co7        1.0     0.333333     0.666667     0.831489    Uiso  ? Co
   Co8        1.0     0.333333     0.666667     0.668945    Uiso  ? Co
   Co9        1.0     0.666667     0.333333     0.169123    Uiso  ? Co
   Co10       1.0     0.667820     0.833910     0.750090    Uiso  ? Co
   Co11       1.0     0.833463     0.666925     0.248459    Uiso  ? Co
   Co12       1.0     0.833463     0.166537     0.248459    Uiso  ? Co
   Co13       1.0     0.166090     0.833910     0.750090    Uiso  ? Co
   Co14       1.0     0.166090     0.332180     0.750090    Uiso  ? Co
   Co15       1.0     0.333075     0.166537     0.248459    Uiso  ? Co
   Co16       1.0     0.667583     0.833791     0.588250    Uiso  ? Co
   Co17       1.0     0.166208     0.833791     0.588250    Uiso  ? Co
   Co18       1.0     0.166208     0.332417     0.588250    Uiso  ? Co
   Co19       1.0     0.833061     0.666122     0.087043    Uiso  ? Co
   Co20       1.0     0.833061     0.166939     0.087043    Uiso  ? Co
   Co21       1.0     0.333878     0.166939     0.087043    Uiso  ? Co
   Co22       1.0     0.334122     0.167061     0.414425    Uiso  ? Co
   Co23       1.0     0.832939     0.665878     0.414425    Uiso  ? Co
   Co24       1.0     0.832939     0.167061     0.414425    Uiso  ? Co
   Co25       1.0     0.165806     0.834194     0.912107    Uiso  ? Co
   Co26       1.0     0.668387     0.834194     0.912107    Uiso  ? Co
   Co27       1.0     0.165806     0.331613     0.912107    Uiso  ? Co
   Zn1        1.0     -0.000000     -0.000000     0.332119    Uiso  ? Zn
