
#======================================================================
# CRYSTAL DATA
#----------------------------------------------------------------------
data_VESTA_phase_1

_chemical_name_common                  'Sm8 Co28                              '
_cell_length_a                         5.058025
_cell_length_b                         5.058025
_cell_length_c                         24.697674
_cell_angle_alpha                      90.000000
_cell_angle_beta                       90.000000
_cell_angle_gamma                      120.000000
_cell_volume                           547.203274
_space_group_name_H-M_alt              'P 1'
_space_group_IT_number                 1

loop_
_space_group_symop_operation_xyz
   'x, y, z'

loop_
   _atom_site_label
   _atom_site_occupancy
   _atom_site_fract_x
   _atom_site_fract_y
   _atom_site_fract_z
   _atom_site_adp_type
   _atom_site_U_iso_or_equiv
   _atom_site_type_symbol
   Sm1        1.0     0.666667     0.333333     0.526271    Uiso  ? Sm
   Sm2        1.0     0.333333     0.666667     0.026271    Uiso  ? Sm
   Sm3        1.0     0.333333     0.666667     0.473729    Uiso  ? Sm
   Sm4        1.0     0.666667     0.333333     0.973729    Uiso  ? Sm
   Sm5        1.0     0.666667     0.333333     0.664775    Uiso  ? Sm
   Sm6        1.0     0.333333     0.666667     0.164775    Uiso  ? Sm
   Sm7        1.0     0.333333     0.666667     0.335225    Uiso  ? Sm
   Sm8        1.0     0.666667     0.333333     0.835225    Uiso  ? Sm
   Co1        1.0     0.000000     0.000000     0.500000    Uiso  ? Co
   Co2        1.0     0.000000     0.000000     -0.000000    Uiso  ? Co
   Co3        1.0     0.000000     0.000000     0.663535    Uiso  ? Co
   Co4        1.0     0.000000     0.000000     0.163535    Uiso  ? Co
   Co5        1.0     0.000000     0.000000     0.336465    Uiso  ? Co
   Co6        1.0     0.000000     0.000000     0.836465    Uiso  ? Co
   Co7        1.0     0.666667     0.333333     0.337240    Uiso  ? Co
   Co8        1.0     0.333333     0.666667     0.837240    Uiso  ? Co
   Co9        1.0     0.333333     0.666667     0.662760    Uiso  ? Co
   Co10       1.0     0.666667     0.333333     0.162760    Uiso  ? Co
   Co11       1.0     0.671221     0.835611     0.586056    Uiso  ? Co
   Co12       1.0     0.164389     0.835611     0.586056    Uiso  ? Co
   Co13       1.0     0.164389     0.328779     0.586056    Uiso  ? Co
   Co14       1.0     0.835611     0.671221     0.086056    Uiso  ? Co
   Co15       1.0     0.835611     0.164389     0.086056    Uiso  ? Co
   Co16       1.0     0.328779     0.164389     0.086056    Uiso  ? Co
   Co17       1.0     0.328779     0.164389     0.413944    Uiso  ? Co
   Co18       1.0     0.835611     0.671221     0.413944    Uiso  ? Co
   Co19       1.0     0.835611     0.164389     0.413944    Uiso  ? Co
   Co20       1.0     0.164389     0.835611     0.913944    Uiso  ? Co
   Co21       1.0     0.671221     0.835611     0.913944    Uiso  ? Co
   Co22       1.0     0.164389     0.328779     0.913944    Uiso  ? Co
   Zn1        1.0     0.833046     0.666091     0.250000    Uiso  ? Zn
   Zn2        1.0     0.666091     0.833046     0.750000    Uiso  ? Zn
   Zn3        1.0     0.166954     0.333909     0.750000    Uiso  ? Zn
   Zn4        1.0     0.333909     0.166954     0.250000    Uiso  ? Zn
   Zn5        1.0     0.166954     0.833046     0.750000    Uiso  ? Zn
   Zn6        1.0     0.833046     0.166954     0.250000    Uiso  ? Zn
