
#======================================================================
# CRYSTAL DATA
#----------------------------------------------------------------------
data_VESTA_phase_1

_chemical_name_common                  'Sm8 Co28                              '
_cell_length_a                         5.003223
_cell_length_b                         5.003223
_cell_length_c                         24.472668
_cell_angle_alpha                      90.000000
_cell_angle_beta                       90.000000
_cell_angle_gamma                      118.331825
_cell_volume                           539.224030
_space_group_name_H-M_alt              'P 1'
_space_group_IT_number                 1

loop_
_space_group_symop_operation_xyz
   'x, y, z'

loop_
   _atom_site_label
   _atom_site_occupancy
   _atom_site_fract_x
   _atom_site_fract_y
   _atom_site_fract_z
   _atom_site_adp_type
   _atom_site_U_iso_or_equiv
   _atom_site_type_symbol
   Sm1        1.0     0.667563     0.332438     0.526866    Uiso  ? Sm
   Sm2        1.0     0.332438     0.667563     0.026866    Uiso  ? Sm
   Sm3        1.0     0.332438     0.667563     0.473134    Uiso  ? Sm
   Sm4        1.0     0.667563     0.332438     0.973134    Uiso  ? Sm
   Sm5        1.0     0.666606     0.333394     0.667190    Uiso  ? Sm
   Sm6        1.0     0.333394     0.666606     0.167190    Uiso  ? Sm
   Sm7        1.0     0.333394     0.666606     0.332810    Uiso  ? Sm
   Sm8        1.0     0.666606     0.333394     0.832810    Uiso  ? Sm
   Co1        1.0     0.000000     0.000000     0.500000    Uiso  ? Co
   Co2        1.0     0.000000     0.000000     -0.000000    Uiso  ? Co
   Co3        1.0     0.013868    -0.013868     0.665589    Uiso  ? Co
   Co4        1.0    -0.013868     0.013868     0.165589    Uiso  ? Co
   Co5        1.0    -0.013868     0.013868     0.334411    Uiso  ? Co
   Co6        1.0     0.013868    -0.013868     0.834411    Uiso  ? Co
   Co7        1.0     0.680370     0.319630     0.334967    Uiso  ? Co
   Co8        1.0     0.319630     0.680370     0.834967    Uiso  ? Co
   Co9        1.0     0.319630     0.680370     0.665033    Uiso  ? Co
   Co10       1.0     0.680370     0.319630     0.165033    Uiso  ? Co
   Co11       1.0     0.833397     0.166603     0.250000    Uiso  ? Co
   Co12       1.0     0.166603     0.833397     0.750000    Uiso  ? Co
   Co13       1.0     0.668980     0.833825     0.587674    Uiso  ? Co
   Co14       1.0     0.164050     0.835950     0.584584    Uiso  ? Co
   Co15       1.0     0.166175     0.331020     0.587674    Uiso  ? Co
   Co16       1.0     0.833825     0.668980     0.087674    Uiso  ? Co
   Co17       1.0     0.835950     0.164050     0.084584    Uiso  ? Co
   Co18       1.0     0.331020     0.166175     0.087674    Uiso  ? Co
   Co19       1.0     0.331020     0.166175     0.412326    Uiso  ? Co
   Co20       1.0     0.833825     0.668980     0.412326    Uiso  ? Co
   Co21       1.0     0.835950     0.164050     0.415416    Uiso  ? Co
   Co22       1.0     0.164050     0.835950     0.915416    Uiso  ? Co
   Co23       1.0     0.668980     0.833825     0.912326    Uiso  ? Co
   Co24       1.0     0.166175     0.331020     0.912326    Uiso  ? Co
   Zn1        1.0     0.833183     0.666285     0.250000    Uiso  ? Zn
   Zn2        1.0     0.666285     0.833183     0.750000    Uiso  ? Zn
   Zn3        1.0     0.166817     0.333715     0.750000    Uiso  ? Zn
   Zn4        1.0     0.333715     0.166817     0.250000    Uiso  ? Zn
