
#======================================================================
# CRYSTAL DATA
#----------------------------------------------------------------------
data_VESTA_phase_1

_chemical_name_common                  'Sm8 Co28                              '
_cell_length_a                         5.020513
_cell_length_b                         5.020513
_cell_length_c                         24.266441
_cell_angle_alpha                      90.000000
_cell_angle_beta                       90.000000
_cell_angle_gamma                      120.000000
_cell_volume                           529.703501
_space_group_name_H-M_alt              'P 1'
_space_group_IT_number                 1

loop_
_space_group_symop_operation_xyz
   'x, y, z'

loop_
   _atom_site_label
   _atom_site_occupancy
   _atom_site_fract_x
   _atom_site_fract_y
   _atom_site_fract_z
   _atom_site_adp_type
   _atom_site_U_iso_or_equiv
   _atom_site_type_symbol
   Sm1        1.0     0.666667     0.333333     0.528559    Uiso  ? Sm
   Sm2        1.0     0.333333     0.666667     0.027576    Uiso  ? Sm
   Sm3        1.0     0.333333     0.666667     0.472131    Uiso  ? Sm
   Sm4        1.0     0.666667     0.333333     0.972014    Uiso  ? Sm
   Sm5        1.0     0.666667     0.333333     0.673383    Uiso  ? Sm
   Sm6        1.0     0.333333     0.666667     0.172104    Uiso  ? Sm
   Sm7        1.0     0.333333     0.666667     0.324943    Uiso  ? Sm
   Sm8        1.0     0.666667     0.333333     0.827002    Uiso  ? Sm
   Co1        1.0     -0.000000     -0.000000     0.500132    Uiso  ? Co
   Co2        1.0     -0.000000     -0.000000    -0.000554    Uiso  ? Co
   Co3        1.0     -0.000000     -0.000000     0.668292    Uiso  ? Co
   Co4        1.0     -0.000000     -0.000000     0.168558    Uiso  ? Co
   Co5        1.0     -0.000000     -0.000000     0.332492    Uiso  ? Co
   Co6        1.0     -0.000000     -0.000000     0.831831    Uiso  ? Co
   Co7        1.0     0.333333     0.666667     0.831488    Uiso  ? Co
   Co8        1.0     0.333333     0.666667     0.668983    Uiso  ? Co
   Co9        1.0     0.666667     0.333333     0.167236    Uiso  ? Co
   Co10       1.0     0.667948     0.833974     0.750201    Uiso  ? Co
   Co11       1.0     0.834927     0.669853     0.248569    Uiso  ? Co
   Co12       1.0     0.834927     0.165073     0.248569    Uiso  ? Co
   Co13       1.0     0.166026     0.833974     0.750201    Uiso  ? Co
   Co14       1.0     0.166026     0.332052     0.750201    Uiso  ? Co
   Co15       1.0     0.330147     0.165073     0.248569    Uiso  ? Co
   Co16       1.0     0.667463     0.833732     0.588238    Uiso  ? Co
   Co17       1.0     0.166268     0.833732     0.588238    Uiso  ? Co
   Co18       1.0     0.166268     0.332537     0.588238    Uiso  ? Co
   Co19       1.0     0.835122     0.670244     0.087217    Uiso  ? Co
   Co20       1.0     0.835122     0.164878     0.087217    Uiso  ? Co
   Co21       1.0     0.329756     0.164878     0.087217    Uiso  ? Co
   Co22       1.0     0.329194     0.164597     0.414266    Uiso  ? Co
   Co23       1.0     0.835403     0.670806     0.414266    Uiso  ? Co
   Co24       1.0     0.835403     0.164597     0.414266    Uiso  ? Co
   Co25       1.0     0.165884     0.834116     0.912111    Uiso  ? Co
   Co26       1.0     0.668231     0.834116     0.912111    Uiso  ? Co
   Co27       1.0     0.165884     0.331769     0.912111    Uiso  ? Co
   Zn1        1.0     0.666667     0.333333     0.332029    Uiso  ? Zn
